
---------- Begin Simulation Statistics ----------
final_tick                               3000000000000                       # Number of ticks from beginning of simulation (restored from checkpoints and never reset)
host_inst_rate                                 923529                       # Simulator instruction rate (inst/s)
host_mem_usage                              135192176                       # Number of bytes of host memory used
host_op_rate                                  1081466                       # Simulator op (including micro ops) rate (op/s)
host_seconds                                 26577.00                       # Real time elapsed on the host
host_tick_rate                               77527631                       # Simulator tick rate (ticks/s)
sim_freq                                 1000000000000                       # Frequency of simulated ticks
sim_insts                                 24544639591                       # Number of instructions simulated
sim_ops                                   28742108249                       # Number of ops (including micro ops) simulated
sim_seconds                                  2.060452                       # Number of seconds simulated
sim_ticks                                2060451685929                       # Number of ticks simulated
system.cpu00.committedInsts                         0                       # Number of instructions committed
system.cpu00.committedOps                           0                       # Number of ops (including micro ops) committed
system.cpu00.dtb.accesses                           0                       # DTB accesses
system.cpu00.dtb.align_faults                       0                       # Number of TLB faults due to alignment restrictions
system.cpu00.dtb.domain_faults                      0                       # Number of TLB faults due to domain restrictions
system.cpu00.dtb.flush_entries                      0                       # Number of entries that have been flushed from TLB
system.cpu00.dtb.flush_tlb                          0                       # Number of times complete TLB was flushed
system.cpu00.dtb.flush_tlb_asid                     0                       # Number of times TLB was flushed by ASID
system.cpu00.dtb.flush_tlb_mva                      0                       # Number of times TLB was flushed by MVA
system.cpu00.dtb.flush_tlb_mva_asid                 0                       # Number of times TLB was flushed by MVA & ASID
system.cpu00.dtb.hits                               0                       # DTB hits
system.cpu00.dtb.inst_accesses                      0                       # ITB inst accesses
system.cpu00.dtb.inst_hits                          0                       # ITB inst hits
system.cpu00.dtb.inst_misses                        0                       # ITB inst misses
system.cpu00.dtb.misses                             0                       # DTB misses
system.cpu00.dtb.perms_faults                       0                       # Number of TLB faults due to permissions restrictions
system.cpu00.dtb.prefetch_faults                    0                       # Number of TLB faults due to prefetch
system.cpu00.dtb.read_accesses                      0                       # DTB read accesses
system.cpu00.dtb.read_hits                          0                       # DTB read hits
system.cpu00.dtb.read_misses                        0                       # DTB read misses
system.cpu00.dtb.stage2_mmu.stage2_tlb.accesses            0                       # DTB accesses
system.cpu00.dtb.stage2_mmu.stage2_tlb.align_faults            0                       # Number of TLB faults due to alignment restrictions
system.cpu00.dtb.stage2_mmu.stage2_tlb.domain_faults            0                       # Number of TLB faults due to domain restrictions
system.cpu00.dtb.stage2_mmu.stage2_tlb.flush_entries            0                       # Number of entries that have been flushed from TLB
system.cpu00.dtb.stage2_mmu.stage2_tlb.flush_tlb            0                       # Number of times complete TLB was flushed
system.cpu00.dtb.stage2_mmu.stage2_tlb.flush_tlb_asid            0                       # Number of times TLB was flushed by ASID
system.cpu00.dtb.stage2_mmu.stage2_tlb.flush_tlb_mva            0                       # Number of times TLB was flushed by MVA
system.cpu00.dtb.stage2_mmu.stage2_tlb.flush_tlb_mva_asid            0                       # Number of times TLB was flushed by MVA & ASID
system.cpu00.dtb.stage2_mmu.stage2_tlb.hits            0                       # DTB hits
system.cpu00.dtb.stage2_mmu.stage2_tlb.inst_accesses            0                       # ITB inst accesses
system.cpu00.dtb.stage2_mmu.stage2_tlb.inst_hits            0                       # ITB inst hits
system.cpu00.dtb.stage2_mmu.stage2_tlb.inst_misses            0                       # ITB inst misses
system.cpu00.dtb.stage2_mmu.stage2_tlb.misses            0                       # DTB misses
system.cpu00.dtb.stage2_mmu.stage2_tlb.perms_faults            0                       # Number of TLB faults due to permissions restrictions
system.cpu00.dtb.stage2_mmu.stage2_tlb.prefetch_faults            0                       # Number of TLB faults due to prefetch
system.cpu00.dtb.stage2_mmu.stage2_tlb.read_accesses            0                       # DTB read accesses
system.cpu00.dtb.stage2_mmu.stage2_tlb.read_hits            0                       # DTB read hits
system.cpu00.dtb.stage2_mmu.stage2_tlb.read_misses            0                       # DTB read misses
system.cpu00.dtb.stage2_mmu.stage2_tlb.walker.walkRequestOrigin_Requested::Data            0                       # Table walker requests started/completed, data/inst
system.cpu00.dtb.stage2_mmu.stage2_tlb.walker.walkRequestOrigin_Requested::Inst            0                       # Table walker requests started/completed, data/inst
system.cpu00.dtb.stage2_mmu.stage2_tlb.walker.walkRequestOrigin_Requested::total            0                       # Table walker requests started/completed, data/inst
system.cpu00.dtb.stage2_mmu.stage2_tlb.walker.walkRequestOrigin_Completed::Data            0                       # Table walker requests started/completed, data/inst
system.cpu00.dtb.stage2_mmu.stage2_tlb.walker.walkRequestOrigin_Completed::Inst            0                       # Table walker requests started/completed, data/inst
system.cpu00.dtb.stage2_mmu.stage2_tlb.walker.walkRequestOrigin_Completed::total            0                       # Table walker requests started/completed, data/inst
system.cpu00.dtb.stage2_mmu.stage2_tlb.walker.walkRequestOrigin::total            0                       # Table walker requests started/completed, data/inst
system.cpu00.dtb.stage2_mmu.stage2_tlb.walker.walks            0                       # Table walker walks requested
system.cpu00.dtb.stage2_mmu.stage2_tlb.write_accesses            0                       # DTB write accesses
system.cpu00.dtb.stage2_mmu.stage2_tlb.write_hits            0                       # DTB write hits
system.cpu00.dtb.stage2_mmu.stage2_tlb.write_misses            0                       # DTB write misses
system.cpu00.dtb.walker.walkRequestOrigin_Requested::Data            0                       # Table walker requests started/completed, data/inst
system.cpu00.dtb.walker.walkRequestOrigin_Requested::Inst            0                       # Table walker requests started/completed, data/inst
system.cpu00.dtb.walker.walkRequestOrigin_Requested::total            0                       # Table walker requests started/completed, data/inst
system.cpu00.dtb.walker.walkRequestOrigin_Completed::Data            0                       # Table walker requests started/completed, data/inst
system.cpu00.dtb.walker.walkRequestOrigin_Completed::Inst            0                       # Table walker requests started/completed, data/inst
system.cpu00.dtb.walker.walkRequestOrigin_Completed::total            0                       # Table walker requests started/completed, data/inst
system.cpu00.dtb.walker.walkRequestOrigin::total            0                       # Table walker requests started/completed, data/inst
system.cpu00.dtb.walker.walks                       0                       # Table walker walks requested
system.cpu00.dtb.write_accesses                     0                       # DTB write accesses
system.cpu00.dtb.write_hits                         0                       # DTB write hits
system.cpu00.dtb.write_misses                       0                       # DTB write misses
system.cpu00.idle_fraction                          0                       # Percentage of idle cycles
system.cpu00.itb.accesses                           0                       # DTB accesses
system.cpu00.itb.align_faults                       0                       # Number of TLB faults due to alignment restrictions
system.cpu00.itb.domain_faults                      0                       # Number of TLB faults due to domain restrictions
system.cpu00.itb.flush_entries                      0                       # Number of entries that have been flushed from TLB
system.cpu00.itb.flush_tlb                          0                       # Number of times complete TLB was flushed
system.cpu00.itb.flush_tlb_asid                     0                       # Number of times TLB was flushed by ASID
system.cpu00.itb.flush_tlb_mva                      0                       # Number of times TLB was flushed by MVA
system.cpu00.itb.flush_tlb_mva_asid                 0                       # Number of times TLB was flushed by MVA & ASID
system.cpu00.itb.hits                               0                       # DTB hits
system.cpu00.itb.inst_accesses                      0                       # ITB inst accesses
system.cpu00.itb.inst_hits                          0                       # ITB inst hits
system.cpu00.itb.inst_misses                        0                       # ITB inst misses
system.cpu00.itb.misses                             0                       # DTB misses
system.cpu00.itb.perms_faults                       0                       # Number of TLB faults due to permissions restrictions
system.cpu00.itb.prefetch_faults                    0                       # Number of TLB faults due to prefetch
system.cpu00.itb.read_accesses                      0                       # DTB read accesses
system.cpu00.itb.read_hits                          0                       # DTB read hits
system.cpu00.itb.read_misses                        0                       # DTB read misses
system.cpu00.itb.stage2_mmu.stage2_tlb.accesses            0                       # DTB accesses
system.cpu00.itb.stage2_mmu.stage2_tlb.align_faults            0                       # Number of TLB faults due to alignment restrictions
system.cpu00.itb.stage2_mmu.stage2_tlb.domain_faults            0                       # Number of TLB faults due to domain restrictions
system.cpu00.itb.stage2_mmu.stage2_tlb.flush_entries            0                       # Number of entries that have been flushed from TLB
system.cpu00.itb.stage2_mmu.stage2_tlb.flush_tlb            0                       # Number of times complete TLB was flushed
system.cpu00.itb.stage2_mmu.stage2_tlb.flush_tlb_asid            0                       # Number of times TLB was flushed by ASID
system.cpu00.itb.stage2_mmu.stage2_tlb.flush_tlb_mva            0                       # Number of times TLB was flushed by MVA
system.cpu00.itb.stage2_mmu.stage2_tlb.flush_tlb_mva_asid            0                       # Number of times TLB was flushed by MVA & ASID
system.cpu00.itb.stage2_mmu.stage2_tlb.hits            0                       # DTB hits
system.cpu00.itb.stage2_mmu.stage2_tlb.inst_accesses            0                       # ITB inst accesses
system.cpu00.itb.stage2_mmu.stage2_tlb.inst_hits            0                       # ITB inst hits
system.cpu00.itb.stage2_mmu.stage2_tlb.inst_misses            0                       # ITB inst misses
system.cpu00.itb.stage2_mmu.stage2_tlb.misses            0                       # DTB misses
system.cpu00.itb.stage2_mmu.stage2_tlb.perms_faults            0                       # Number of TLB faults due to permissions restrictions
system.cpu00.itb.stage2_mmu.stage2_tlb.prefetch_faults            0                       # Number of TLB faults due to prefetch
system.cpu00.itb.stage2_mmu.stage2_tlb.read_accesses            0                       # DTB read accesses
system.cpu00.itb.stage2_mmu.stage2_tlb.read_hits            0                       # DTB read hits
system.cpu00.itb.stage2_mmu.stage2_tlb.read_misses            0                       # DTB read misses
system.cpu00.itb.stage2_mmu.stage2_tlb.walker.walkRequestOrigin_Requested::Data            0                       # Table walker requests started/completed, data/inst
system.cpu00.itb.stage2_mmu.stage2_tlb.walker.walkRequestOrigin_Requested::Inst            0                       # Table walker requests started/completed, data/inst
system.cpu00.itb.stage2_mmu.stage2_tlb.walker.walkRequestOrigin_Requested::total            0                       # Table walker requests started/completed, data/inst
system.cpu00.itb.stage2_mmu.stage2_tlb.walker.walkRequestOrigin_Completed::Data            0                       # Table walker requests started/completed, data/inst
system.cpu00.itb.stage2_mmu.stage2_tlb.walker.walkRequestOrigin_Completed::Inst            0                       # Table walker requests started/completed, data/inst
system.cpu00.itb.stage2_mmu.stage2_tlb.walker.walkRequestOrigin_Completed::total            0                       # Table walker requests started/completed, data/inst
system.cpu00.itb.stage2_mmu.stage2_tlb.walker.walkRequestOrigin::total            0                       # Table walker requests started/completed, data/inst
system.cpu00.itb.stage2_mmu.stage2_tlb.walker.walks            0                       # Table walker walks requested
system.cpu00.itb.stage2_mmu.stage2_tlb.write_accesses            0                       # DTB write accesses
system.cpu00.itb.stage2_mmu.stage2_tlb.write_hits            0                       # DTB write hits
system.cpu00.itb.stage2_mmu.stage2_tlb.write_misses            0                       # DTB write misses
system.cpu00.itb.walker.walkRequestOrigin_Requested::Data            0                       # Table walker requests started/completed, data/inst
system.cpu00.itb.walker.walkRequestOrigin_Requested::Inst            0                       # Table walker requests started/completed, data/inst
system.cpu00.itb.walker.walkRequestOrigin_Requested::total            0                       # Table walker requests started/completed, data/inst
system.cpu00.itb.walker.walkRequestOrigin_Completed::Data            0                       # Table walker requests started/completed, data/inst
system.cpu00.itb.walker.walkRequestOrigin_Completed::Inst            0                       # Table walker requests started/completed, data/inst
system.cpu00.itb.walker.walkRequestOrigin_Completed::total            0                       # Table walker requests started/completed, data/inst
system.cpu00.itb.walker.walkRequestOrigin::total            0                       # Table walker requests started/completed, data/inst
system.cpu00.itb.walker.walks                       0                       # Table walker walks requested
system.cpu00.itb.write_accesses                     0                       # DTB write accesses
system.cpu00.itb.write_hits                         0                       # DTB write hits
system.cpu00.itb.write_misses                       0                       # DTB write misses
system.cpu00.not_idle_fraction                      1                       # Percentage of non-idle cycles
system.cpu00.numCycles                              0                       # number of cpu cycles simulated
system.cpu00.numWorkItemsCompleted                  0                       # number of work items this cpu completed
system.cpu00.numWorkItemsStarted                    0                       # number of work items this cpu started
system.cpu00.num_busy_cycles                        0                       # Number of busy cycles
system.cpu00.num_conditional_control_insts            0                       # number of instructions that are conditional controls
system.cpu00.num_fp_alu_accesses                    0                       # Number of float alu accesses
system.cpu00.num_fp_insts                           0                       # number of float instructions
system.cpu00.num_fp_register_reads                  0                       # number of times the floating registers were read
system.cpu00.num_fp_register_writes                 0                       # number of times the floating registers were written
system.cpu00.num_func_calls                         0                       # number of times a function call or return occured
system.cpu00.num_idle_cycles                        0                       # Number of idle cycles
system.cpu00.num_int_alu_accesses                   0                       # Number of integer alu accesses
system.cpu00.num_int_insts                          0                       # number of integer instructions
system.cpu00.num_int_register_reads                 0                       # number of times the integer registers were read
system.cpu00.num_int_register_writes                0                       # number of times the integer registers were written
system.cpu00.num_load_insts                         0                       # Number of load instructions
system.cpu00.num_mem_refs                           0                       # number of memory refs
system.cpu00.num_store_insts                        0                       # Number of store instructions
system.cpu00.num_vec_alu_accesses                   0                       # Number of vector alu accesses
system.cpu00.num_vec_insts                          0                       # number of vector instructions
system.cpu00.num_vec_register_reads                 0                       # number of times the vector registers were read
system.cpu00.num_vec_register_writes                0                       # number of times the vector registers were written
system.cpu00.op_class::No_OpClass                   0                       # Class of executed instruction
system.cpu00.op_class::IntAlu                       0                       # Class of executed instruction
system.cpu00.op_class::IntMult                      0                       # Class of executed instruction
system.cpu00.op_class::IntDiv                       0                       # Class of executed instruction
system.cpu00.op_class::FloatAdd                     0                       # Class of executed instruction
system.cpu00.op_class::FloatCmp                     0                       # Class of executed instruction
system.cpu00.op_class::FloatCvt                     0                       # Class of executed instruction
system.cpu00.op_class::FloatMult                    0                       # Class of executed instruction
system.cpu00.op_class::FloatMultAcc                 0                       # Class of executed instruction
system.cpu00.op_class::FloatDiv                     0                       # Class of executed instruction
system.cpu00.op_class::FloatMisc                    0                       # Class of executed instruction
system.cpu00.op_class::FloatSqrt                    0                       # Class of executed instruction
system.cpu00.op_class::SimdAdd                      0                       # Class of executed instruction
system.cpu00.op_class::SimdAddAcc                   0                       # Class of executed instruction
system.cpu00.op_class::SimdAlu                      0                       # Class of executed instruction
system.cpu00.op_class::SimdCmp                      0                       # Class of executed instruction
system.cpu00.op_class::SimdCvt                      0                       # Class of executed instruction
system.cpu00.op_class::SimdMisc                     0                       # Class of executed instruction
system.cpu00.op_class::SimdMult                     0                       # Class of executed instruction
system.cpu00.op_class::SimdMultAcc                  0                       # Class of executed instruction
system.cpu00.op_class::SimdShift                    0                       # Class of executed instruction
system.cpu00.op_class::SimdShiftAcc                 0                       # Class of executed instruction
system.cpu00.op_class::SimdDiv                      0                       # Class of executed instruction
system.cpu00.op_class::SimdSqrt                     0                       # Class of executed instruction
system.cpu00.op_class::SimdFloatAdd                 0                       # Class of executed instruction
system.cpu00.op_class::SimdFloatAlu                 0                       # Class of executed instruction
system.cpu00.op_class::SimdFloatCmp                 0                       # Class of executed instruction
system.cpu00.op_class::SimdFloatCvt                 0                       # Class of executed instruction
system.cpu00.op_class::SimdFloatDiv                 0                       # Class of executed instruction
system.cpu00.op_class::SimdFloatMisc                0                       # Class of executed instruction
system.cpu00.op_class::SimdFloatMult                0                       # Class of executed instruction
system.cpu00.op_class::SimdFloatMultAcc             0                       # Class of executed instruction
system.cpu00.op_class::SimdFloatSqrt                0                       # Class of executed instruction
system.cpu00.op_class::SimdReduceAdd                0                       # Class of executed instruction
system.cpu00.op_class::SimdReduceAlu                0                       # Class of executed instruction
system.cpu00.op_class::SimdReduceCmp                0                       # Class of executed instruction
system.cpu00.op_class::SimdFloatReduceAdd            0                       # Class of executed instruction
system.cpu00.op_class::SimdFloatReduceCmp            0                       # Class of executed instruction
system.cpu00.op_class::SimdAes                      0                       # Class of executed instruction
system.cpu00.op_class::SimdAesMix                   0                       # Class of executed instruction
system.cpu00.op_class::SimdSha1Hash                 0                       # Class of executed instruction
system.cpu00.op_class::SimdSha1Hash2                0                       # Class of executed instruction
system.cpu00.op_class::SimdSha256Hash               0                       # Class of executed instruction
system.cpu00.op_class::SimdSha256Hash2              0                       # Class of executed instruction
system.cpu00.op_class::SimdShaSigma2                0                       # Class of executed instruction
system.cpu00.op_class::SimdShaSigma3                0                       # Class of executed instruction
system.cpu00.op_class::SimdPredAlu                  0                       # Class of executed instruction
system.cpu00.op_class::MemRead                      0                       # Class of executed instruction
system.cpu00.op_class::MemWrite                     0                       # Class of executed instruction
system.cpu00.op_class::FloatMemRead                 0                       # Class of executed instruction
system.cpu00.op_class::FloatMemWrite                0                       # Class of executed instruction
system.cpu00.op_class::IprAccess                    0                       # Class of executed instruction
system.cpu00.op_class::InstPrefetch                 0                       # Class of executed instruction
system.cpu00.op_class::total                        0                       # Class of executed instruction
system.cpu00.workload.numSyscalls                 128                       # Number of system calls
system.cpu01.committedInsts                         0                       # Number of instructions committed
system.cpu01.committedOps                           0                       # Number of ops (including micro ops) committed
system.cpu01.dtb.accesses                           0                       # DTB accesses
system.cpu01.dtb.align_faults                       0                       # Number of TLB faults due to alignment restrictions
system.cpu01.dtb.domain_faults                      0                       # Number of TLB faults due to domain restrictions
system.cpu01.dtb.flush_entries                      0                       # Number of entries that have been flushed from TLB
system.cpu01.dtb.flush_tlb                          0                       # Number of times complete TLB was flushed
system.cpu01.dtb.flush_tlb_asid                     0                       # Number of times TLB was flushed by ASID
system.cpu01.dtb.flush_tlb_mva                      0                       # Number of times TLB was flushed by MVA
system.cpu01.dtb.flush_tlb_mva_asid                 0                       # Number of times TLB was flushed by MVA & ASID
system.cpu01.dtb.hits                               0                       # DTB hits
system.cpu01.dtb.inst_accesses                      0                       # ITB inst accesses
system.cpu01.dtb.inst_hits                          0                       # ITB inst hits
system.cpu01.dtb.inst_misses                        0                       # ITB inst misses
system.cpu01.dtb.misses                             0                       # DTB misses
system.cpu01.dtb.perms_faults                       0                       # Number of TLB faults due to permissions restrictions
system.cpu01.dtb.prefetch_faults                    0                       # Number of TLB faults due to prefetch
system.cpu01.dtb.read_accesses                      0                       # DTB read accesses
system.cpu01.dtb.read_hits                          0                       # DTB read hits
system.cpu01.dtb.read_misses                        0                       # DTB read misses
system.cpu01.dtb.stage2_mmu.stage2_tlb.accesses            0                       # DTB accesses
system.cpu01.dtb.stage2_mmu.stage2_tlb.align_faults            0                       # Number of TLB faults due to alignment restrictions
system.cpu01.dtb.stage2_mmu.stage2_tlb.domain_faults            0                       # Number of TLB faults due to domain restrictions
system.cpu01.dtb.stage2_mmu.stage2_tlb.flush_entries            0                       # Number of entries that have been flushed from TLB
system.cpu01.dtb.stage2_mmu.stage2_tlb.flush_tlb            0                       # Number of times complete TLB was flushed
system.cpu01.dtb.stage2_mmu.stage2_tlb.flush_tlb_asid            0                       # Number of times TLB was flushed by ASID
system.cpu01.dtb.stage2_mmu.stage2_tlb.flush_tlb_mva            0                       # Number of times TLB was flushed by MVA
system.cpu01.dtb.stage2_mmu.stage2_tlb.flush_tlb_mva_asid            0                       # Number of times TLB was flushed by MVA & ASID
system.cpu01.dtb.stage2_mmu.stage2_tlb.hits            0                       # DTB hits
system.cpu01.dtb.stage2_mmu.stage2_tlb.inst_accesses            0                       # ITB inst accesses
system.cpu01.dtb.stage2_mmu.stage2_tlb.inst_hits            0                       # ITB inst hits
system.cpu01.dtb.stage2_mmu.stage2_tlb.inst_misses            0                       # ITB inst misses
system.cpu01.dtb.stage2_mmu.stage2_tlb.misses            0                       # DTB misses
system.cpu01.dtb.stage2_mmu.stage2_tlb.perms_faults            0                       # Number of TLB faults due to permissions restrictions
system.cpu01.dtb.stage2_mmu.stage2_tlb.prefetch_faults            0                       # Number of TLB faults due to prefetch
system.cpu01.dtb.stage2_mmu.stage2_tlb.read_accesses            0                       # DTB read accesses
system.cpu01.dtb.stage2_mmu.stage2_tlb.read_hits            0                       # DTB read hits
system.cpu01.dtb.stage2_mmu.stage2_tlb.read_misses            0                       # DTB read misses
system.cpu01.dtb.stage2_mmu.stage2_tlb.walker.walkRequestOrigin_Requested::Data            0                       # Table walker requests started/completed, data/inst
system.cpu01.dtb.stage2_mmu.stage2_tlb.walker.walkRequestOrigin_Requested::Inst            0                       # Table walker requests started/completed, data/inst
system.cpu01.dtb.stage2_mmu.stage2_tlb.walker.walkRequestOrigin_Requested::total            0                       # Table walker requests started/completed, data/inst
system.cpu01.dtb.stage2_mmu.stage2_tlb.walker.walkRequestOrigin_Completed::Data            0                       # Table walker requests started/completed, data/inst
system.cpu01.dtb.stage2_mmu.stage2_tlb.walker.walkRequestOrigin_Completed::Inst            0                       # Table walker requests started/completed, data/inst
system.cpu01.dtb.stage2_mmu.stage2_tlb.walker.walkRequestOrigin_Completed::total            0                       # Table walker requests started/completed, data/inst
system.cpu01.dtb.stage2_mmu.stage2_tlb.walker.walkRequestOrigin::total            0                       # Table walker requests started/completed, data/inst
system.cpu01.dtb.stage2_mmu.stage2_tlb.walker.walks            0                       # Table walker walks requested
system.cpu01.dtb.stage2_mmu.stage2_tlb.write_accesses            0                       # DTB write accesses
system.cpu01.dtb.stage2_mmu.stage2_tlb.write_hits            0                       # DTB write hits
system.cpu01.dtb.stage2_mmu.stage2_tlb.write_misses            0                       # DTB write misses
system.cpu01.dtb.walker.walkRequestOrigin_Requested::Data            0                       # Table walker requests started/completed, data/inst
system.cpu01.dtb.walker.walkRequestOrigin_Requested::Inst            0                       # Table walker requests started/completed, data/inst
system.cpu01.dtb.walker.walkRequestOrigin_Requested::total            0                       # Table walker requests started/completed, data/inst
system.cpu01.dtb.walker.walkRequestOrigin_Completed::Data            0                       # Table walker requests started/completed, data/inst
system.cpu01.dtb.walker.walkRequestOrigin_Completed::Inst            0                       # Table walker requests started/completed, data/inst
system.cpu01.dtb.walker.walkRequestOrigin_Completed::total            0                       # Table walker requests started/completed, data/inst
system.cpu01.dtb.walker.walkRequestOrigin::total            0                       # Table walker requests started/completed, data/inst
system.cpu01.dtb.walker.walks                       0                       # Table walker walks requested
system.cpu01.dtb.write_accesses                     0                       # DTB write accesses
system.cpu01.dtb.write_hits                         0                       # DTB write hits
system.cpu01.dtb.write_misses                       0                       # DTB write misses
system.cpu01.idle_fraction                          0                       # Percentage of idle cycles
system.cpu01.itb.accesses                           0                       # DTB accesses
system.cpu01.itb.align_faults                       0                       # Number of TLB faults due to alignment restrictions
system.cpu01.itb.domain_faults                      0                       # Number of TLB faults due to domain restrictions
system.cpu01.itb.flush_entries                      0                       # Number of entries that have been flushed from TLB
system.cpu01.itb.flush_tlb                          0                       # Number of times complete TLB was flushed
system.cpu01.itb.flush_tlb_asid                     0                       # Number of times TLB was flushed by ASID
system.cpu01.itb.flush_tlb_mva                      0                       # Number of times TLB was flushed by MVA
system.cpu01.itb.flush_tlb_mva_asid                 0                       # Number of times TLB was flushed by MVA & ASID
system.cpu01.itb.hits                               0                       # DTB hits
system.cpu01.itb.inst_accesses                      0                       # ITB inst accesses
system.cpu01.itb.inst_hits                          0                       # ITB inst hits
system.cpu01.itb.inst_misses                        0                       # ITB inst misses
system.cpu01.itb.misses                             0                       # DTB misses
system.cpu01.itb.perms_faults                       0                       # Number of TLB faults due to permissions restrictions
system.cpu01.itb.prefetch_faults                    0                       # Number of TLB faults due to prefetch
system.cpu01.itb.read_accesses                      0                       # DTB read accesses
system.cpu01.itb.read_hits                          0                       # DTB read hits
system.cpu01.itb.read_misses                        0                       # DTB read misses
system.cpu01.itb.stage2_mmu.stage2_tlb.accesses            0                       # DTB accesses
system.cpu01.itb.stage2_mmu.stage2_tlb.align_faults            0                       # Number of TLB faults due to alignment restrictions
system.cpu01.itb.stage2_mmu.stage2_tlb.domain_faults            0                       # Number of TLB faults due to domain restrictions
system.cpu01.itb.stage2_mmu.stage2_tlb.flush_entries            0                       # Number of entries that have been flushed from TLB
system.cpu01.itb.stage2_mmu.stage2_tlb.flush_tlb            0                       # Number of times complete TLB was flushed
system.cpu01.itb.stage2_mmu.stage2_tlb.flush_tlb_asid            0                       # Number of times TLB was flushed by ASID
system.cpu01.itb.stage2_mmu.stage2_tlb.flush_tlb_mva            0                       # Number of times TLB was flushed by MVA
system.cpu01.itb.stage2_mmu.stage2_tlb.flush_tlb_mva_asid            0                       # Number of times TLB was flushed by MVA & ASID
system.cpu01.itb.stage2_mmu.stage2_tlb.hits            0                       # DTB hits
system.cpu01.itb.stage2_mmu.stage2_tlb.inst_accesses            0                       # ITB inst accesses
system.cpu01.itb.stage2_mmu.stage2_tlb.inst_hits            0                       # ITB inst hits
system.cpu01.itb.stage2_mmu.stage2_tlb.inst_misses            0                       # ITB inst misses
system.cpu01.itb.stage2_mmu.stage2_tlb.misses            0                       # DTB misses
system.cpu01.itb.stage2_mmu.stage2_tlb.perms_faults            0                       # Number of TLB faults due to permissions restrictions
system.cpu01.itb.stage2_mmu.stage2_tlb.prefetch_faults            0                       # Number of TLB faults due to prefetch
system.cpu01.itb.stage2_mmu.stage2_tlb.read_accesses            0                       # DTB read accesses
system.cpu01.itb.stage2_mmu.stage2_tlb.read_hits            0                       # DTB read hits
system.cpu01.itb.stage2_mmu.stage2_tlb.read_misses            0                       # DTB read misses
system.cpu01.itb.stage2_mmu.stage2_tlb.walker.walkRequestOrigin_Requested::Data            0                       # Table walker requests started/completed, data/inst
system.cpu01.itb.stage2_mmu.stage2_tlb.walker.walkRequestOrigin_Requested::Inst            0                       # Table walker requests started/completed, data/inst
system.cpu01.itb.stage2_mmu.stage2_tlb.walker.walkRequestOrigin_Requested::total            0                       # Table walker requests started/completed, data/inst
system.cpu01.itb.stage2_mmu.stage2_tlb.walker.walkRequestOrigin_Completed::Data            0                       # Table walker requests started/completed, data/inst
system.cpu01.itb.stage2_mmu.stage2_tlb.walker.walkRequestOrigin_Completed::Inst            0                       # Table walker requests started/completed, data/inst
system.cpu01.itb.stage2_mmu.stage2_tlb.walker.walkRequestOrigin_Completed::total            0                       # Table walker requests started/completed, data/inst
system.cpu01.itb.stage2_mmu.stage2_tlb.walker.walkRequestOrigin::total            0                       # Table walker requests started/completed, data/inst
system.cpu01.itb.stage2_mmu.stage2_tlb.walker.walks            0                       # Table walker walks requested
system.cpu01.itb.stage2_mmu.stage2_tlb.write_accesses            0                       # DTB write accesses
system.cpu01.itb.stage2_mmu.stage2_tlb.write_hits            0                       # DTB write hits
system.cpu01.itb.stage2_mmu.stage2_tlb.write_misses            0                       # DTB write misses
system.cpu01.itb.walker.walkRequestOrigin_Requested::Data            0                       # Table walker requests started/completed, data/inst
system.cpu01.itb.walker.walkRequestOrigin_Requested::Inst            0                       # Table walker requests started/completed, data/inst
system.cpu01.itb.walker.walkRequestOrigin_Requested::total            0                       # Table walker requests started/completed, data/inst
system.cpu01.itb.walker.walkRequestOrigin_Completed::Data            0                       # Table walker requests started/completed, data/inst
system.cpu01.itb.walker.walkRequestOrigin_Completed::Inst            0                       # Table walker requests started/completed, data/inst
system.cpu01.itb.walker.walkRequestOrigin_Completed::total            0                       # Table walker requests started/completed, data/inst
system.cpu01.itb.walker.walkRequestOrigin::total            0                       # Table walker requests started/completed, data/inst
system.cpu01.itb.walker.walks                       0                       # Table walker walks requested
system.cpu01.itb.write_accesses                     0                       # DTB write accesses
system.cpu01.itb.write_hits                         0                       # DTB write hits
system.cpu01.itb.write_misses                       0                       # DTB write misses
system.cpu01.not_idle_fraction                      1                       # Percentage of non-idle cycles
system.cpu01.numCycles                              0                       # number of cpu cycles simulated
system.cpu01.numWorkItemsCompleted                  0                       # number of work items this cpu completed
system.cpu01.numWorkItemsStarted                    0                       # number of work items this cpu started
system.cpu01.num_busy_cycles                        0                       # Number of busy cycles
system.cpu01.num_conditional_control_insts            0                       # number of instructions that are conditional controls
system.cpu01.num_fp_alu_accesses                    0                       # Number of float alu accesses
system.cpu01.num_fp_insts                           0                       # number of float instructions
system.cpu01.num_fp_register_reads                  0                       # number of times the floating registers were read
system.cpu01.num_fp_register_writes                 0                       # number of times the floating registers were written
system.cpu01.num_func_calls                         0                       # number of times a function call or return occured
system.cpu01.num_idle_cycles                        0                       # Number of idle cycles
system.cpu01.num_int_alu_accesses                   0                       # Number of integer alu accesses
system.cpu01.num_int_insts                          0                       # number of integer instructions
system.cpu01.num_int_register_reads                 0                       # number of times the integer registers were read
system.cpu01.num_int_register_writes                0                       # number of times the integer registers were written
system.cpu01.num_load_insts                         0                       # Number of load instructions
system.cpu01.num_mem_refs                           0                       # number of memory refs
system.cpu01.num_store_insts                        0                       # Number of store instructions
system.cpu01.num_vec_alu_accesses                   0                       # Number of vector alu accesses
system.cpu01.num_vec_insts                          0                       # number of vector instructions
system.cpu01.num_vec_register_reads                 0                       # number of times the vector registers were read
system.cpu01.num_vec_register_writes                0                       # number of times the vector registers were written
system.cpu01.op_class::No_OpClass                   0                       # Class of executed instruction
system.cpu01.op_class::IntAlu                       0                       # Class of executed instruction
system.cpu01.op_class::IntMult                      0                       # Class of executed instruction
system.cpu01.op_class::IntDiv                       0                       # Class of executed instruction
system.cpu01.op_class::FloatAdd                     0                       # Class of executed instruction
system.cpu01.op_class::FloatCmp                     0                       # Class of executed instruction
system.cpu01.op_class::FloatCvt                     0                       # Class of executed instruction
system.cpu01.op_class::FloatMult                    0                       # Class of executed instruction
system.cpu01.op_class::FloatMultAcc                 0                       # Class of executed instruction
system.cpu01.op_class::FloatDiv                     0                       # Class of executed instruction
system.cpu01.op_class::FloatMisc                    0                       # Class of executed instruction
system.cpu01.op_class::FloatSqrt                    0                       # Class of executed instruction
system.cpu01.op_class::SimdAdd                      0                       # Class of executed instruction
system.cpu01.op_class::SimdAddAcc                   0                       # Class of executed instruction
system.cpu01.op_class::SimdAlu                      0                       # Class of executed instruction
system.cpu01.op_class::SimdCmp                      0                       # Class of executed instruction
system.cpu01.op_class::SimdCvt                      0                       # Class of executed instruction
system.cpu01.op_class::SimdMisc                     0                       # Class of executed instruction
system.cpu01.op_class::SimdMult                     0                       # Class of executed instruction
system.cpu01.op_class::SimdMultAcc                  0                       # Class of executed instruction
system.cpu01.op_class::SimdShift                    0                       # Class of executed instruction
system.cpu01.op_class::SimdShiftAcc                 0                       # Class of executed instruction
system.cpu01.op_class::SimdDiv                      0                       # Class of executed instruction
system.cpu01.op_class::SimdSqrt                     0                       # Class of executed instruction
system.cpu01.op_class::SimdFloatAdd                 0                       # Class of executed instruction
system.cpu01.op_class::SimdFloatAlu                 0                       # Class of executed instruction
system.cpu01.op_class::SimdFloatCmp                 0                       # Class of executed instruction
system.cpu01.op_class::SimdFloatCvt                 0                       # Class of executed instruction
system.cpu01.op_class::SimdFloatDiv                 0                       # Class of executed instruction
system.cpu01.op_class::SimdFloatMisc                0                       # Class of executed instruction
system.cpu01.op_class::SimdFloatMult                0                       # Class of executed instruction
system.cpu01.op_class::SimdFloatMultAcc             0                       # Class of executed instruction
system.cpu01.op_class::SimdFloatSqrt                0                       # Class of executed instruction
system.cpu01.op_class::SimdReduceAdd                0                       # Class of executed instruction
system.cpu01.op_class::SimdReduceAlu                0                       # Class of executed instruction
system.cpu01.op_class::SimdReduceCmp                0                       # Class of executed instruction
system.cpu01.op_class::SimdFloatReduceAdd            0                       # Class of executed instruction
system.cpu01.op_class::SimdFloatReduceCmp            0                       # Class of executed instruction
system.cpu01.op_class::SimdAes                      0                       # Class of executed instruction
system.cpu01.op_class::SimdAesMix                   0                       # Class of executed instruction
system.cpu01.op_class::SimdSha1Hash                 0                       # Class of executed instruction
system.cpu01.op_class::SimdSha1Hash2                0                       # Class of executed instruction
system.cpu01.op_class::SimdSha256Hash               0                       # Class of executed instruction
system.cpu01.op_class::SimdSha256Hash2              0                       # Class of executed instruction
system.cpu01.op_class::SimdShaSigma2                0                       # Class of executed instruction
system.cpu01.op_class::SimdShaSigma3                0                       # Class of executed instruction
system.cpu01.op_class::SimdPredAlu                  0                       # Class of executed instruction
system.cpu01.op_class::MemRead                      0                       # Class of executed instruction
system.cpu01.op_class::MemWrite                     0                       # Class of executed instruction
system.cpu01.op_class::FloatMemRead                 0                       # Class of executed instruction
system.cpu01.op_class::FloatMemWrite                0                       # Class of executed instruction
system.cpu01.op_class::IprAccess                    0                       # Class of executed instruction
system.cpu01.op_class::InstPrefetch                 0                       # Class of executed instruction
system.cpu01.op_class::total                        0                       # Class of executed instruction
system.cpu01.workload.numSyscalls               32944                       # Number of system calls
system.cpu02.committedInsts                         0                       # Number of instructions committed
system.cpu02.committedOps                           0                       # Number of ops (including micro ops) committed
system.cpu02.dtb.accesses                           0                       # DTB accesses
system.cpu02.dtb.align_faults                       0                       # Number of TLB faults due to alignment restrictions
system.cpu02.dtb.domain_faults                      0                       # Number of TLB faults due to domain restrictions
system.cpu02.dtb.flush_entries                      0                       # Number of entries that have been flushed from TLB
system.cpu02.dtb.flush_tlb                          0                       # Number of times complete TLB was flushed
system.cpu02.dtb.flush_tlb_asid                     0                       # Number of times TLB was flushed by ASID
system.cpu02.dtb.flush_tlb_mva                      0                       # Number of times TLB was flushed by MVA
system.cpu02.dtb.flush_tlb_mva_asid                 0                       # Number of times TLB was flushed by MVA & ASID
system.cpu02.dtb.hits                               0                       # DTB hits
system.cpu02.dtb.inst_accesses                      0                       # ITB inst accesses
system.cpu02.dtb.inst_hits                          0                       # ITB inst hits
system.cpu02.dtb.inst_misses                        0                       # ITB inst misses
system.cpu02.dtb.misses                             0                       # DTB misses
system.cpu02.dtb.perms_faults                       0                       # Number of TLB faults due to permissions restrictions
system.cpu02.dtb.prefetch_faults                    0                       # Number of TLB faults due to prefetch
system.cpu02.dtb.read_accesses                      0                       # DTB read accesses
system.cpu02.dtb.read_hits                          0                       # DTB read hits
system.cpu02.dtb.read_misses                        0                       # DTB read misses
system.cpu02.dtb.stage2_mmu.stage2_tlb.accesses            0                       # DTB accesses
system.cpu02.dtb.stage2_mmu.stage2_tlb.align_faults            0                       # Number of TLB faults due to alignment restrictions
system.cpu02.dtb.stage2_mmu.stage2_tlb.domain_faults            0                       # Number of TLB faults due to domain restrictions
system.cpu02.dtb.stage2_mmu.stage2_tlb.flush_entries            0                       # Number of entries that have been flushed from TLB
system.cpu02.dtb.stage2_mmu.stage2_tlb.flush_tlb            0                       # Number of times complete TLB was flushed
system.cpu02.dtb.stage2_mmu.stage2_tlb.flush_tlb_asid            0                       # Number of times TLB was flushed by ASID
system.cpu02.dtb.stage2_mmu.stage2_tlb.flush_tlb_mva            0                       # Number of times TLB was flushed by MVA
system.cpu02.dtb.stage2_mmu.stage2_tlb.flush_tlb_mva_asid            0                       # Number of times TLB was flushed by MVA & ASID
system.cpu02.dtb.stage2_mmu.stage2_tlb.hits            0                       # DTB hits
system.cpu02.dtb.stage2_mmu.stage2_tlb.inst_accesses            0                       # ITB inst accesses
system.cpu02.dtb.stage2_mmu.stage2_tlb.inst_hits            0                       # ITB inst hits
system.cpu02.dtb.stage2_mmu.stage2_tlb.inst_misses            0                       # ITB inst misses
system.cpu02.dtb.stage2_mmu.stage2_tlb.misses            0                       # DTB misses
system.cpu02.dtb.stage2_mmu.stage2_tlb.perms_faults            0                       # Number of TLB faults due to permissions restrictions
system.cpu02.dtb.stage2_mmu.stage2_tlb.prefetch_faults            0                       # Number of TLB faults due to prefetch
system.cpu02.dtb.stage2_mmu.stage2_tlb.read_accesses            0                       # DTB read accesses
system.cpu02.dtb.stage2_mmu.stage2_tlb.read_hits            0                       # DTB read hits
system.cpu02.dtb.stage2_mmu.stage2_tlb.read_misses            0                       # DTB read misses
system.cpu02.dtb.stage2_mmu.stage2_tlb.walker.walkRequestOrigin_Requested::Data            0                       # Table walker requests started/completed, data/inst
system.cpu02.dtb.stage2_mmu.stage2_tlb.walker.walkRequestOrigin_Requested::Inst            0                       # Table walker requests started/completed, data/inst
system.cpu02.dtb.stage2_mmu.stage2_tlb.walker.walkRequestOrigin_Requested::total            0                       # Table walker requests started/completed, data/inst
system.cpu02.dtb.stage2_mmu.stage2_tlb.walker.walkRequestOrigin_Completed::Data            0                       # Table walker requests started/completed, data/inst
system.cpu02.dtb.stage2_mmu.stage2_tlb.walker.walkRequestOrigin_Completed::Inst            0                       # Table walker requests started/completed, data/inst
system.cpu02.dtb.stage2_mmu.stage2_tlb.walker.walkRequestOrigin_Completed::total            0                       # Table walker requests started/completed, data/inst
system.cpu02.dtb.stage2_mmu.stage2_tlb.walker.walkRequestOrigin::total            0                       # Table walker requests started/completed, data/inst
system.cpu02.dtb.stage2_mmu.stage2_tlb.walker.walks            0                       # Table walker walks requested
system.cpu02.dtb.stage2_mmu.stage2_tlb.write_accesses            0                       # DTB write accesses
system.cpu02.dtb.stage2_mmu.stage2_tlb.write_hits            0                       # DTB write hits
system.cpu02.dtb.stage2_mmu.stage2_tlb.write_misses            0                       # DTB write misses
system.cpu02.dtb.walker.walkRequestOrigin_Requested::Data            0                       # Table walker requests started/completed, data/inst
system.cpu02.dtb.walker.walkRequestOrigin_Requested::Inst            0                       # Table walker requests started/completed, data/inst
system.cpu02.dtb.walker.walkRequestOrigin_Requested::total            0                       # Table walker requests started/completed, data/inst
system.cpu02.dtb.walker.walkRequestOrigin_Completed::Data            0                       # Table walker requests started/completed, data/inst
system.cpu02.dtb.walker.walkRequestOrigin_Completed::Inst            0                       # Table walker requests started/completed, data/inst
system.cpu02.dtb.walker.walkRequestOrigin_Completed::total            0                       # Table walker requests started/completed, data/inst
system.cpu02.dtb.walker.walkRequestOrigin::total            0                       # Table walker requests started/completed, data/inst
system.cpu02.dtb.walker.walks                       0                       # Table walker walks requested
system.cpu02.dtb.write_accesses                     0                       # DTB write accesses
system.cpu02.dtb.write_hits                         0                       # DTB write hits
system.cpu02.dtb.write_misses                       0                       # DTB write misses
system.cpu02.idle_fraction                          0                       # Percentage of idle cycles
system.cpu02.itb.accesses                           0                       # DTB accesses
system.cpu02.itb.align_faults                       0                       # Number of TLB faults due to alignment restrictions
system.cpu02.itb.domain_faults                      0                       # Number of TLB faults due to domain restrictions
system.cpu02.itb.flush_entries                      0                       # Number of entries that have been flushed from TLB
system.cpu02.itb.flush_tlb                          0                       # Number of times complete TLB was flushed
system.cpu02.itb.flush_tlb_asid                     0                       # Number of times TLB was flushed by ASID
system.cpu02.itb.flush_tlb_mva                      0                       # Number of times TLB was flushed by MVA
system.cpu02.itb.flush_tlb_mva_asid                 0                       # Number of times TLB was flushed by MVA & ASID
system.cpu02.itb.hits                               0                       # DTB hits
system.cpu02.itb.inst_accesses                      0                       # ITB inst accesses
system.cpu02.itb.inst_hits                          0                       # ITB inst hits
system.cpu02.itb.inst_misses                        0                       # ITB inst misses
system.cpu02.itb.misses                             0                       # DTB misses
system.cpu02.itb.perms_faults                       0                       # Number of TLB faults due to permissions restrictions
system.cpu02.itb.prefetch_faults                    0                       # Number of TLB faults due to prefetch
system.cpu02.itb.read_accesses                      0                       # DTB read accesses
system.cpu02.itb.read_hits                          0                       # DTB read hits
system.cpu02.itb.read_misses                        0                       # DTB read misses
system.cpu02.itb.stage2_mmu.stage2_tlb.accesses            0                       # DTB accesses
system.cpu02.itb.stage2_mmu.stage2_tlb.align_faults            0                       # Number of TLB faults due to alignment restrictions
system.cpu02.itb.stage2_mmu.stage2_tlb.domain_faults            0                       # Number of TLB faults due to domain restrictions
system.cpu02.itb.stage2_mmu.stage2_tlb.flush_entries            0                       # Number of entries that have been flushed from TLB
system.cpu02.itb.stage2_mmu.stage2_tlb.flush_tlb            0                       # Number of times complete TLB was flushed
system.cpu02.itb.stage2_mmu.stage2_tlb.flush_tlb_asid            0                       # Number of times TLB was flushed by ASID
system.cpu02.itb.stage2_mmu.stage2_tlb.flush_tlb_mva            0                       # Number of times TLB was flushed by MVA
system.cpu02.itb.stage2_mmu.stage2_tlb.flush_tlb_mva_asid            0                       # Number of times TLB was flushed by MVA & ASID
system.cpu02.itb.stage2_mmu.stage2_tlb.hits            0                       # DTB hits
system.cpu02.itb.stage2_mmu.stage2_tlb.inst_accesses            0                       # ITB inst accesses
system.cpu02.itb.stage2_mmu.stage2_tlb.inst_hits            0                       # ITB inst hits
system.cpu02.itb.stage2_mmu.stage2_tlb.inst_misses            0                       # ITB inst misses
system.cpu02.itb.stage2_mmu.stage2_tlb.misses            0                       # DTB misses
system.cpu02.itb.stage2_mmu.stage2_tlb.perms_faults            0                       # Number of TLB faults due to permissions restrictions
system.cpu02.itb.stage2_mmu.stage2_tlb.prefetch_faults            0                       # Number of TLB faults due to prefetch
system.cpu02.itb.stage2_mmu.stage2_tlb.read_accesses            0                       # DTB read accesses
system.cpu02.itb.stage2_mmu.stage2_tlb.read_hits            0                       # DTB read hits
system.cpu02.itb.stage2_mmu.stage2_tlb.read_misses            0                       # DTB read misses
system.cpu02.itb.stage2_mmu.stage2_tlb.walker.walkRequestOrigin_Requested::Data            0                       # Table walker requests started/completed, data/inst
system.cpu02.itb.stage2_mmu.stage2_tlb.walker.walkRequestOrigin_Requested::Inst            0                       # Table walker requests started/completed, data/inst
system.cpu02.itb.stage2_mmu.stage2_tlb.walker.walkRequestOrigin_Requested::total            0                       # Table walker requests started/completed, data/inst
system.cpu02.itb.stage2_mmu.stage2_tlb.walker.walkRequestOrigin_Completed::Data            0                       # Table walker requests started/completed, data/inst
system.cpu02.itb.stage2_mmu.stage2_tlb.walker.walkRequestOrigin_Completed::Inst            0                       # Table walker requests started/completed, data/inst
system.cpu02.itb.stage2_mmu.stage2_tlb.walker.walkRequestOrigin_Completed::total            0                       # Table walker requests started/completed, data/inst
system.cpu02.itb.stage2_mmu.stage2_tlb.walker.walkRequestOrigin::total            0                       # Table walker requests started/completed, data/inst
system.cpu02.itb.stage2_mmu.stage2_tlb.walker.walks            0                       # Table walker walks requested
system.cpu02.itb.stage2_mmu.stage2_tlb.write_accesses            0                       # DTB write accesses
system.cpu02.itb.stage2_mmu.stage2_tlb.write_hits            0                       # DTB write hits
system.cpu02.itb.stage2_mmu.stage2_tlb.write_misses            0                       # DTB write misses
system.cpu02.itb.walker.walkRequestOrigin_Requested::Data            0                       # Table walker requests started/completed, data/inst
system.cpu02.itb.walker.walkRequestOrigin_Requested::Inst            0                       # Table walker requests started/completed, data/inst
system.cpu02.itb.walker.walkRequestOrigin_Requested::total            0                       # Table walker requests started/completed, data/inst
system.cpu02.itb.walker.walkRequestOrigin_Completed::Data            0                       # Table walker requests started/completed, data/inst
system.cpu02.itb.walker.walkRequestOrigin_Completed::Inst            0                       # Table walker requests started/completed, data/inst
system.cpu02.itb.walker.walkRequestOrigin_Completed::total            0                       # Table walker requests started/completed, data/inst
system.cpu02.itb.walker.walkRequestOrigin::total            0                       # Table walker requests started/completed, data/inst
system.cpu02.itb.walker.walks                       0                       # Table walker walks requested
system.cpu02.itb.write_accesses                     0                       # DTB write accesses
system.cpu02.itb.write_hits                         0                       # DTB write hits
system.cpu02.itb.write_misses                       0                       # DTB write misses
system.cpu02.not_idle_fraction                      1                       # Percentage of non-idle cycles
system.cpu02.numCycles                              0                       # number of cpu cycles simulated
system.cpu02.numWorkItemsCompleted                  0                       # number of work items this cpu completed
system.cpu02.numWorkItemsStarted                    0                       # number of work items this cpu started
system.cpu02.num_busy_cycles                        0                       # Number of busy cycles
system.cpu02.num_conditional_control_insts            0                       # number of instructions that are conditional controls
system.cpu02.num_fp_alu_accesses                    0                       # Number of float alu accesses
system.cpu02.num_fp_insts                           0                       # number of float instructions
system.cpu02.num_fp_register_reads                  0                       # number of times the floating registers were read
system.cpu02.num_fp_register_writes                 0                       # number of times the floating registers were written
system.cpu02.num_func_calls                         0                       # number of times a function call or return occured
system.cpu02.num_idle_cycles                        0                       # Number of idle cycles
system.cpu02.num_int_alu_accesses                   0                       # Number of integer alu accesses
system.cpu02.num_int_insts                          0                       # number of integer instructions
system.cpu02.num_int_register_reads                 0                       # number of times the integer registers were read
system.cpu02.num_int_register_writes                0                       # number of times the integer registers were written
system.cpu02.num_load_insts                         0                       # Number of load instructions
system.cpu02.num_mem_refs                           0                       # number of memory refs
system.cpu02.num_store_insts                        0                       # Number of store instructions
system.cpu02.num_vec_alu_accesses                   0                       # Number of vector alu accesses
system.cpu02.num_vec_insts                          0                       # number of vector instructions
system.cpu02.num_vec_register_reads                 0                       # number of times the vector registers were read
system.cpu02.num_vec_register_writes                0                       # number of times the vector registers were written
system.cpu02.op_class::No_OpClass                   0                       # Class of executed instruction
system.cpu02.op_class::IntAlu                       0                       # Class of executed instruction
system.cpu02.op_class::IntMult                      0                       # Class of executed instruction
system.cpu02.op_class::IntDiv                       0                       # Class of executed instruction
system.cpu02.op_class::FloatAdd                     0                       # Class of executed instruction
system.cpu02.op_class::FloatCmp                     0                       # Class of executed instruction
system.cpu02.op_class::FloatCvt                     0                       # Class of executed instruction
system.cpu02.op_class::FloatMult                    0                       # Class of executed instruction
system.cpu02.op_class::FloatMultAcc                 0                       # Class of executed instruction
system.cpu02.op_class::FloatDiv                     0                       # Class of executed instruction
system.cpu02.op_class::FloatMisc                    0                       # Class of executed instruction
system.cpu02.op_class::FloatSqrt                    0                       # Class of executed instruction
system.cpu02.op_class::SimdAdd                      0                       # Class of executed instruction
system.cpu02.op_class::SimdAddAcc                   0                       # Class of executed instruction
system.cpu02.op_class::SimdAlu                      0                       # Class of executed instruction
system.cpu02.op_class::SimdCmp                      0                       # Class of executed instruction
system.cpu02.op_class::SimdCvt                      0                       # Class of executed instruction
system.cpu02.op_class::SimdMisc                     0                       # Class of executed instruction
system.cpu02.op_class::SimdMult                     0                       # Class of executed instruction
system.cpu02.op_class::SimdMultAcc                  0                       # Class of executed instruction
system.cpu02.op_class::SimdShift                    0                       # Class of executed instruction
system.cpu02.op_class::SimdShiftAcc                 0                       # Class of executed instruction
system.cpu02.op_class::SimdDiv                      0                       # Class of executed instruction
system.cpu02.op_class::SimdSqrt                     0                       # Class of executed instruction
system.cpu02.op_class::SimdFloatAdd                 0                       # Class of executed instruction
system.cpu02.op_class::SimdFloatAlu                 0                       # Class of executed instruction
system.cpu02.op_class::SimdFloatCmp                 0                       # Class of executed instruction
system.cpu02.op_class::SimdFloatCvt                 0                       # Class of executed instruction
system.cpu02.op_class::SimdFloatDiv                 0                       # Class of executed instruction
system.cpu02.op_class::SimdFloatMisc                0                       # Class of executed instruction
system.cpu02.op_class::SimdFloatMult                0                       # Class of executed instruction
system.cpu02.op_class::SimdFloatMultAcc             0                       # Class of executed instruction
system.cpu02.op_class::SimdFloatSqrt                0                       # Class of executed instruction
system.cpu02.op_class::SimdReduceAdd                0                       # Class of executed instruction
system.cpu02.op_class::SimdReduceAlu                0                       # Class of executed instruction
system.cpu02.op_class::SimdReduceCmp                0                       # Class of executed instruction
system.cpu02.op_class::SimdFloatReduceAdd            0                       # Class of executed instruction
system.cpu02.op_class::SimdFloatReduceCmp            0                       # Class of executed instruction
system.cpu02.op_class::SimdAes                      0                       # Class of executed instruction
system.cpu02.op_class::SimdAesMix                   0                       # Class of executed instruction
system.cpu02.op_class::SimdSha1Hash                 0                       # Class of executed instruction
system.cpu02.op_class::SimdSha1Hash2                0                       # Class of executed instruction
system.cpu02.op_class::SimdSha256Hash               0                       # Class of executed instruction
system.cpu02.op_class::SimdSha256Hash2              0                       # Class of executed instruction
system.cpu02.op_class::SimdShaSigma2                0                       # Class of executed instruction
system.cpu02.op_class::SimdShaSigma3                0                       # Class of executed instruction
system.cpu02.op_class::SimdPredAlu                  0                       # Class of executed instruction
system.cpu02.op_class::MemRead                      0                       # Class of executed instruction
system.cpu02.op_class::MemWrite                     0                       # Class of executed instruction
system.cpu02.op_class::FloatMemRead                 0                       # Class of executed instruction
system.cpu02.op_class::FloatMemWrite                0                       # Class of executed instruction
system.cpu02.op_class::IprAccess                    0                       # Class of executed instruction
system.cpu02.op_class::InstPrefetch                 0                       # Class of executed instruction
system.cpu02.op_class::total                        0                       # Class of executed instruction
system.cpu03.committedInsts                         0                       # Number of instructions committed
system.cpu03.committedOps                           0                       # Number of ops (including micro ops) committed
system.cpu03.dtb.accesses                           0                       # DTB accesses
system.cpu03.dtb.align_faults                       0                       # Number of TLB faults due to alignment restrictions
system.cpu03.dtb.domain_faults                      0                       # Number of TLB faults due to domain restrictions
system.cpu03.dtb.flush_entries                      0                       # Number of entries that have been flushed from TLB
system.cpu03.dtb.flush_tlb                          0                       # Number of times complete TLB was flushed
system.cpu03.dtb.flush_tlb_asid                     0                       # Number of times TLB was flushed by ASID
system.cpu03.dtb.flush_tlb_mva                      0                       # Number of times TLB was flushed by MVA
system.cpu03.dtb.flush_tlb_mva_asid                 0                       # Number of times TLB was flushed by MVA & ASID
system.cpu03.dtb.hits                               0                       # DTB hits
system.cpu03.dtb.inst_accesses                      0                       # ITB inst accesses
system.cpu03.dtb.inst_hits                          0                       # ITB inst hits
system.cpu03.dtb.inst_misses                        0                       # ITB inst misses
system.cpu03.dtb.misses                             0                       # DTB misses
system.cpu03.dtb.perms_faults                       0                       # Number of TLB faults due to permissions restrictions
system.cpu03.dtb.prefetch_faults                    0                       # Number of TLB faults due to prefetch
system.cpu03.dtb.read_accesses                      0                       # DTB read accesses
system.cpu03.dtb.read_hits                          0                       # DTB read hits
system.cpu03.dtb.read_misses                        0                       # DTB read misses
system.cpu03.dtb.stage2_mmu.stage2_tlb.accesses            0                       # DTB accesses
system.cpu03.dtb.stage2_mmu.stage2_tlb.align_faults            0                       # Number of TLB faults due to alignment restrictions
system.cpu03.dtb.stage2_mmu.stage2_tlb.domain_faults            0                       # Number of TLB faults due to domain restrictions
system.cpu03.dtb.stage2_mmu.stage2_tlb.flush_entries            0                       # Number of entries that have been flushed from TLB
system.cpu03.dtb.stage2_mmu.stage2_tlb.flush_tlb            0                       # Number of times complete TLB was flushed
system.cpu03.dtb.stage2_mmu.stage2_tlb.flush_tlb_asid            0                       # Number of times TLB was flushed by ASID
system.cpu03.dtb.stage2_mmu.stage2_tlb.flush_tlb_mva            0                       # Number of times TLB was flushed by MVA
system.cpu03.dtb.stage2_mmu.stage2_tlb.flush_tlb_mva_asid            0                       # Number of times TLB was flushed by MVA & ASID
system.cpu03.dtb.stage2_mmu.stage2_tlb.hits            0                       # DTB hits
system.cpu03.dtb.stage2_mmu.stage2_tlb.inst_accesses            0                       # ITB inst accesses
system.cpu03.dtb.stage2_mmu.stage2_tlb.inst_hits            0                       # ITB inst hits
system.cpu03.dtb.stage2_mmu.stage2_tlb.inst_misses            0                       # ITB inst misses
system.cpu03.dtb.stage2_mmu.stage2_tlb.misses            0                       # DTB misses
system.cpu03.dtb.stage2_mmu.stage2_tlb.perms_faults            0                       # Number of TLB faults due to permissions restrictions
system.cpu03.dtb.stage2_mmu.stage2_tlb.prefetch_faults            0                       # Number of TLB faults due to prefetch
system.cpu03.dtb.stage2_mmu.stage2_tlb.read_accesses            0                       # DTB read accesses
system.cpu03.dtb.stage2_mmu.stage2_tlb.read_hits            0                       # DTB read hits
system.cpu03.dtb.stage2_mmu.stage2_tlb.read_misses            0                       # DTB read misses
system.cpu03.dtb.stage2_mmu.stage2_tlb.walker.walkRequestOrigin_Requested::Data            0                       # Table walker requests started/completed, data/inst
system.cpu03.dtb.stage2_mmu.stage2_tlb.walker.walkRequestOrigin_Requested::Inst            0                       # Table walker requests started/completed, data/inst
system.cpu03.dtb.stage2_mmu.stage2_tlb.walker.walkRequestOrigin_Requested::total            0                       # Table walker requests started/completed, data/inst
system.cpu03.dtb.stage2_mmu.stage2_tlb.walker.walkRequestOrigin_Completed::Data            0                       # Table walker requests started/completed, data/inst
system.cpu03.dtb.stage2_mmu.stage2_tlb.walker.walkRequestOrigin_Completed::Inst            0                       # Table walker requests started/completed, data/inst
system.cpu03.dtb.stage2_mmu.stage2_tlb.walker.walkRequestOrigin_Completed::total            0                       # Table walker requests started/completed, data/inst
system.cpu03.dtb.stage2_mmu.stage2_tlb.walker.walkRequestOrigin::total            0                       # Table walker requests started/completed, data/inst
system.cpu03.dtb.stage2_mmu.stage2_tlb.walker.walks            0                       # Table walker walks requested
system.cpu03.dtb.stage2_mmu.stage2_tlb.write_accesses            0                       # DTB write accesses
system.cpu03.dtb.stage2_mmu.stage2_tlb.write_hits            0                       # DTB write hits
system.cpu03.dtb.stage2_mmu.stage2_tlb.write_misses            0                       # DTB write misses
system.cpu03.dtb.walker.walkRequestOrigin_Requested::Data            0                       # Table walker requests started/completed, data/inst
system.cpu03.dtb.walker.walkRequestOrigin_Requested::Inst            0                       # Table walker requests started/completed, data/inst
system.cpu03.dtb.walker.walkRequestOrigin_Requested::total            0                       # Table walker requests started/completed, data/inst
system.cpu03.dtb.walker.walkRequestOrigin_Completed::Data            0                       # Table walker requests started/completed, data/inst
system.cpu03.dtb.walker.walkRequestOrigin_Completed::Inst            0                       # Table walker requests started/completed, data/inst
system.cpu03.dtb.walker.walkRequestOrigin_Completed::total            0                       # Table walker requests started/completed, data/inst
system.cpu03.dtb.walker.walkRequestOrigin::total            0                       # Table walker requests started/completed, data/inst
system.cpu03.dtb.walker.walks                       0                       # Table walker walks requested
system.cpu03.dtb.write_accesses                     0                       # DTB write accesses
system.cpu03.dtb.write_hits                         0                       # DTB write hits
system.cpu03.dtb.write_misses                       0                       # DTB write misses
system.cpu03.idle_fraction                          0                       # Percentage of idle cycles
system.cpu03.itb.accesses                           0                       # DTB accesses
system.cpu03.itb.align_faults                       0                       # Number of TLB faults due to alignment restrictions
system.cpu03.itb.domain_faults                      0                       # Number of TLB faults due to domain restrictions
system.cpu03.itb.flush_entries                      0                       # Number of entries that have been flushed from TLB
system.cpu03.itb.flush_tlb                          0                       # Number of times complete TLB was flushed
system.cpu03.itb.flush_tlb_asid                     0                       # Number of times TLB was flushed by ASID
system.cpu03.itb.flush_tlb_mva                      0                       # Number of times TLB was flushed by MVA
system.cpu03.itb.flush_tlb_mva_asid                 0                       # Number of times TLB was flushed by MVA & ASID
system.cpu03.itb.hits                               0                       # DTB hits
system.cpu03.itb.inst_accesses                      0                       # ITB inst accesses
system.cpu03.itb.inst_hits                          0                       # ITB inst hits
system.cpu03.itb.inst_misses                        0                       # ITB inst misses
system.cpu03.itb.misses                             0                       # DTB misses
system.cpu03.itb.perms_faults                       0                       # Number of TLB faults due to permissions restrictions
system.cpu03.itb.prefetch_faults                    0                       # Number of TLB faults due to prefetch
system.cpu03.itb.read_accesses                      0                       # DTB read accesses
system.cpu03.itb.read_hits                          0                       # DTB read hits
system.cpu03.itb.read_misses                        0                       # DTB read misses
system.cpu03.itb.stage2_mmu.stage2_tlb.accesses            0                       # DTB accesses
[...]
system.l2.overall_avg_mshr_miss_latency::total 54991.432860                       # average overall mshr miss latency
system.l2.replacements                         770209                       # number of replacements
system.l2.WritebackDirty_hits::.writebacks      8268175                       # number of WritebackDirty hits
system.l2.WritebackDirty_hits::total          8268175                       # number of WritebackDirty hits
system.l2.WritebackDirty_accesses::.writebacks      8268175                       # number of WritebackDirty accesses(hits+misses)
system.l2.WritebackDirty_accesses::total      8268175                       # number of WritebackDirty accesses(hits+misses)
system.l2.UpgradeReq_misses::.switch_cpus01.data       742276                       # number of UpgradeReq misses
system.l2.UpgradeReq_misses::total             742276                       # number of UpgradeReq misses
system.l2.UpgradeReq_miss_latency::.switch_cpus01.data  23483185819                       # number of UpgradeReq miss cycles
system.l2.UpgradeReq_miss_latency::total  23483185819                       # number of UpgradeReq miss cycles
system.l2.UpgradeReq_accesses::.switch_cpus01.data       742276                       # number of UpgradeReq accesses(hits+misses)
system.l2.UpgradeReq_accesses::total           742276                       # number of UpgradeReq accesses(hits+misses)
system.l2.UpgradeReq_miss_rate::.switch_cpus01.data            1                       # miss rate for UpgradeReq accesses
system.l2.UpgradeReq_miss_rate::total               1                       # miss rate for UpgradeReq accesses
system.l2.UpgradeReq_avg_miss_latency::.switch_cpus01.data 31636.730568                       # average UpgradeReq miss latency
system.l2.UpgradeReq_avg_miss_latency::total 31636.730568                       # average UpgradeReq miss latency
system.l2.UpgradeReq_mshr_misses::.switch_cpus01.data       742276                       # number of UpgradeReq MSHR misses
system.l2.UpgradeReq_mshr_misses::total        742276                       # number of UpgradeReq MSHR misses
system.l2.UpgradeReq_mshr_miss_latency::.switch_cpus01.data  17138954316                       # number of UpgradeReq MSHR miss cycles
system.l2.UpgradeReq_mshr_miss_latency::total  17138954316                       # number of UpgradeReq MSHR miss cycles
system.l2.UpgradeReq_mshr_miss_rate::.switch_cpus01.data            1                       # mshr miss rate for UpgradeReq accesses
system.l2.UpgradeReq_mshr_miss_rate::total            1                       # mshr miss rate for UpgradeReq accesses
system.l2.UpgradeReq_avg_mshr_miss_latency::.switch_cpus01.data 23089.732547                       # average UpgradeReq mshr miss latency
system.l2.UpgradeReq_avg_mshr_miss_latency::total 23089.732547                       # average UpgradeReq mshr miss latency
system.l2.SCUpgradeReq_misses::.switch_cpus01.data       676171                       # number of SCUpgradeReq misses
system.l2.SCUpgradeReq_misses::total           676171                       # number of SCUpgradeReq misses
system.l2.SCUpgradeReq_miss_latency::.switch_cpus01.data  21620546906                       # number of SCUpgradeReq miss cycles
system.l2.SCUpgradeReq_miss_latency::total  21620546906                       # number of SCUpgradeReq miss cycles
system.l2.SCUpgradeReq_accesses::.switch_cpus01.data       676171                       # number of SCUpgradeReq accesses(hits+misses)
system.l2.SCUpgradeReq_accesses::total         676171                       # number of SCUpgradeReq accesses(hits+misses)
system.l2.SCUpgradeReq_miss_rate::.switch_cpus01.data            1                       # miss rate for SCUpgradeReq accesses
system.l2.SCUpgradeReq_miss_rate::total             1                       # miss rate for SCUpgradeReq accesses
system.l2.SCUpgradeReq_avg_miss_latency::.switch_cpus01.data 31974.969210                       # average SCUpgradeReq miss latency
system.l2.SCUpgradeReq_avg_miss_latency::total 31974.969210                       # average SCUpgradeReq miss latency
system.l2.SCUpgradeReq_mshr_misses::.switch_cpus01.data       676171                       # number of SCUpgradeReq MSHR misses
system.l2.SCUpgradeReq_mshr_misses::total       676171                       # number of SCUpgradeReq MSHR misses
system.l2.SCUpgradeReq_mshr_miss_latency::.switch_cpus01.data  15920831614                       # number of SCUpgradeReq MSHR miss cycles
system.l2.SCUpgradeReq_mshr_miss_latency::total  15920831614                       # number of SCUpgradeReq MSHR miss cycles
system.l2.SCUpgradeReq_mshr_miss_rate::.switch_cpus01.data            1                       # mshr miss rate for SCUpgradeReq accesses
system.l2.SCUpgradeReq_mshr_miss_rate::total            1                       # mshr miss rate for SCUpgradeReq accesses
system.l2.SCUpgradeReq_avg_mshr_miss_latency::.switch_cpus01.data 23545.570002                       # average SCUpgradeReq mshr miss latency
system.l2.SCUpgradeReq_avg_mshr_miss_latency::total 23545.570002                       # average SCUpgradeReq mshr miss latency
system.l2.SCUpgradeFailReq_misses::.switch_cpus01.data          908                       # number of SCUpgradeFailReq misses
system.l2.SCUpgradeFailReq_misses::total          908                       # number of SCUpgradeFailReq misses
system.l2.SCUpgradeFailReq_miss_latency::.switch_cpus01.data    445643084                       # number of SCUpgradeFailReq miss cycles
system.l2.SCUpgradeFailReq_miss_latency::total    445643084                       # number of SCUpgradeFailReq miss cycles
system.l2.SCUpgradeFailReq_accesses::.switch_cpus01.data          908                       # number of SCUpgradeFailReq accesses(hits+misses)
system.l2.SCUpgradeFailReq_accesses::total          908                       # number of SCUpgradeFailReq accesses(hits+misses)
system.l2.SCUpgradeFailReq_miss_rate::.switch_cpus01.data            1                       # miss rate for SCUpgradeFailReq accesses
system.l2.SCUpgradeFailReq_miss_rate::total            1                       # miss rate for SCUpgradeFailReq accesses
system.l2.SCUpgradeFailReq_avg_miss_latency::.switch_cpus01.data 490796.348018                       # average SCUpgradeFailReq miss latency
system.l2.SCUpgradeFailReq_avg_miss_latency::total 490796.348018                       # average SCUpgradeFailReq miss latency
system.l2.SCUpgradeFailReq_mshr_misses::.switch_cpus01.data          908                       # number of SCUpgradeFailReq MSHR misses
system.l2.SCUpgradeFailReq_mshr_misses::total          908                       # number of SCUpgradeFailReq MSHR misses
system.l2.SCUpgradeFailReq_mshr_miss_latency::.switch_cpus01.data    354996748                       # number of SCUpgradeFailReq MSHR miss cycles
system.l2.SCUpgradeFailReq_mshr_miss_latency::total    354996748                       # number of SCUpgradeFailReq MSHR miss cycles
system.l2.SCUpgradeFailReq_mshr_miss_rate::.switch_cpus01.data            1                       # mshr miss rate for SCUpgradeFailReq accesses
system.l2.SCUpgradeFailReq_mshr_miss_rate::total            1                       # mshr miss rate for SCUpgradeFailReq accesses
system.l2.SCUpgradeFailReq_avg_mshr_miss_latency::.switch_cpus01.data 390965.581498                       # average SCUpgradeFailReq mshr miss latency
system.l2.SCUpgradeFailReq_avg_mshr_miss_latency::total 390965.581498                       # average SCUpgradeFailReq mshr miss latency
system.l2.ReadExReq_hits::.switch_cpus00.data          256                       # number of ReadExReq hits
system.l2.ReadExReq_hits::.switch_cpus01.data          753                       # number of ReadExReq hits
system.l2.ReadExReq_hits::.switch_cpus18.data          318                       # number of ReadExReq hits
system.l2.ReadExReq_hits::.switch_cpus19.data       186091                       # number of ReadExReq hits
system.l2.ReadExReq_hits::total                187418                       # number of ReadExReq hits
system.l2.ReadExReq_misses::.switch_cpus01.data       785898                       # number of ReadExReq misses
system.l2.ReadExReq_misses::total              785898                       # number of ReadExReq misses
system.l2.ReadExReq_miss_latency::.switch_cpus01.data  79428115527                       # number of ReadExReq miss cycles
system.l2.ReadExReq_miss_latency::total   79428115527                       # number of ReadExReq miss cycles
system.l2.ReadExReq_accesses::.switch_cpus00.data          256                       # number of ReadExReq accesses(hits+misses)
system.l2.ReadExReq_accesses::.switch_cpus01.data       786651                       # number of ReadExReq accesses(hits+misses)
system.l2.ReadExReq_accesses::.switch_cpus18.data          318                       # number of ReadExReq accesses(hits+misses)
system.l2.ReadExReq_accesses::.switch_cpus19.data       186091                       # number of ReadExReq accesses(hits+misses)
system.l2.ReadExReq_accesses::total            973316                       # number of ReadExReq accesses(hits+misses)
system.l2.ReadExReq_miss_rate::.switch_cpus01.data     0.999043                       # miss rate for ReadExReq accesses
system.l2.ReadExReq_miss_rate::total         0.807444                       # miss rate for ReadExReq accesses
system.l2.ReadExReq_avg_miss_latency::.switch_cpus01.data 101066.697621                       # average ReadExReq miss latency
system.l2.ReadExReq_avg_miss_latency::total 101066.697621                       # average ReadExReq miss latency
system.l2.ReadExReq_mshr_misses::.switch_cpus01.data       785898                       # number of ReadExReq MSHR misses
system.l2.ReadExReq_mshr_misses::total         785898                       # number of ReadExReq MSHR misses
system.l2.ReadExReq_mshr_miss_latency::.switch_cpus01.data  72711275537                       # number of ReadExReq MSHR miss cycles
system.l2.ReadExReq_mshr_miss_latency::total  72711275537                       # number of ReadExReq MSHR miss cycles
system.l2.ReadExReq_mshr_miss_rate::.switch_cpus01.data     0.999043                       # mshr miss rate for ReadExReq accesses
system.l2.ReadExReq_mshr_miss_rate::total     0.807444                       # mshr miss rate for ReadExReq accesses
system.l2.ReadExReq_avg_mshr_miss_latency::.switch_cpus01.data 92519.990555                       # average ReadExReq mshr miss latency
system.l2.ReadExReq_avg_mshr_miss_latency::total 92519.990555                       # average ReadExReq mshr miss latency
system.l2.ReadSharedReq_hits::.switch_cpus00.data      6744242                       # number of ReadSharedReq hits
system.l2.ReadSharedReq_hits::.switch_cpus01.data       644734                       # number of ReadSharedReq hits
system.l2.ReadSharedReq_hits::.switch_cpus18.data      5041806                       # number of ReadSharedReq hits
system.l2.ReadSharedReq_hits::.switch_cpus19.data      3811450                       # number of ReadSharedReq hits
system.l2.ReadSharedReq_hits::total          16242232                       # number of ReadSharedReq hits
system.l2.ReadSharedReq_misses::.switch_cpus00.data            9                       # number of ReadSharedReq misses
system.l2.ReadSharedReq_misses::.switch_cpus01.data      1125046                       # number of ReadSharedReq misses
system.l2.ReadSharedReq_misses::.switch_cpus19.data           19                       # number of ReadSharedReq misses
system.l2.ReadSharedReq_misses::total         1125074                       # number of ReadSharedReq misses
system.l2.ReadSharedReq_miss_latency::.switch_cpus00.data       978699                       # number of ReadSharedReq miss cycles
system.l2.ReadSharedReq_miss_latency::.switch_cpus01.data  41990974834                       # number of ReadSharedReq miss cycles
system.l2.ReadSharedReq_miss_latency::.switch_cpus19.data      2040798                       # number of ReadSharedReq miss cycles
system.l2.ReadSharedReq_miss_latency::total  41993994331                       # number of ReadSharedReq miss cycles
system.l2.ReadSharedReq_accesses::.switch_cpus00.data      6744251                       # number of ReadSharedReq accesses(hits+misses)
system.l2.ReadSharedReq_accesses::.switch_cpus01.data      1769780                       # number of ReadSharedReq accesses(hits+misses)
system.l2.ReadSharedReq_accesses::.switch_cpus18.data      5041806                       # number of ReadSharedReq accesses(hits+misses)
system.l2.ReadSharedReq_accesses::.switch_cpus19.data      3811469                       # number of ReadSharedReq accesses(hits+misses)
system.l2.ReadSharedReq_accesses::total      17367306                       # number of ReadSharedReq accesses(hits+misses)
system.l2.ReadSharedReq_miss_rate::.switch_cpus00.data     0.000001                       # miss rate for ReadSharedReq accesses
system.l2.ReadSharedReq_miss_rate::.switch_cpus01.data     0.635698                       # miss rate for ReadSharedReq accesses
system.l2.ReadSharedReq_miss_rate::.switch_cpus19.data     0.000005                       # miss rate for ReadSharedReq accesses
system.l2.ReadSharedReq_miss_rate::total     0.064781                       # miss rate for ReadSharedReq accesses
system.l2.ReadSharedReq_avg_miss_latency::.switch_cpus00.data 108744.333333                       # average ReadSharedReq miss latency
system.l2.ReadSharedReq_avg_miss_latency::.switch_cpus01.data 37323.784835                       # average ReadSharedReq miss latency
system.l2.ReadSharedReq_avg_miss_latency::.switch_cpus19.data 107410.421053                       # average ReadSharedReq miss latency
system.l2.ReadSharedReq_avg_miss_latency::total 37325.539770                       # average ReadSharedReq miss latency
system.l2.ReadSharedReq_mshr_misses::.switch_cpus00.data            9                       # number of ReadSharedReq MSHR misses
system.l2.ReadSharedReq_mshr_misses::.switch_cpus01.data      1125046                       # number of ReadSharedReq MSHR misses
system.l2.ReadSharedReq_mshr_misses::.switch_cpus19.data           19                       # number of ReadSharedReq MSHR misses
system.l2.ReadSharedReq_mshr_misses::total      1125074                       # number of ReadSharedReq MSHR misses
system.l2.ReadSharedReq_mshr_miss_latency::.switch_cpus00.data       902160                       # number of ReadSharedReq MSHR miss cycles
system.l2.ReadSharedReq_mshr_miss_latency::.switch_cpus01.data  32373032237                       # number of ReadSharedReq MSHR miss cycles
system.l2.ReadSharedReq_mshr_miss_latency::.switch_cpus19.data      1878502                       # number of ReadSharedReq MSHR miss cycles
system.l2.ReadSharedReq_mshr_miss_latency::total  32375812899                       # number of ReadSharedReq MSHR miss cycles
system.l2.ReadSharedReq_mshr_miss_rate::.switch_cpus00.data     0.000001                       # mshr miss rate for ReadSharedReq accesses
system.l2.ReadSharedReq_mshr_miss_rate::.switch_cpus01.data     0.635698                       # mshr miss rate for ReadSharedReq accesses
system.l2.ReadSharedReq_mshr_miss_rate::.switch_cpus19.data     0.000005                       # mshr miss rate for ReadSharedReq accesses
system.l2.ReadSharedReq_mshr_miss_rate::total     0.064781                       # mshr miss rate for ReadSharedReq accesses
system.l2.ReadSharedReq_avg_mshr_miss_latency::.switch_cpus00.data       100240                       # average ReadSharedReq mshr miss latency
system.l2.ReadSharedReq_avg_mshr_miss_latency::.switch_cpus01.data 28774.852083                       # average ReadSharedReq mshr miss latency
system.l2.ReadSharedReq_avg_mshr_miss_latency::.switch_cpus19.data 98868.526316                       # average ReadSharedReq mshr miss latency
system.l2.ReadSharedReq_avg_mshr_miss_latency::total 28776.607493                       # average ReadSharedReq mshr miss latency
system.l2.tags.pwrStateResidencyTicks::UNDEFINED 3000000000000                       # Cumulative time (in ticks) in various power states
system.l2.tags.tagsinuse                 32765.752558                       # Cycle average of tags in use
system.l2.tags.total_refs                    65348570                       # Total number of references to valid blocks.
system.l2.tags.sampled_refs                   1953517                       # Sample count of references to valid blocks.
system.l2.tags.avg_refs                     33.451754                       # Average number of references to valid blocks.
system.l2.tags.warmup_cycle                         0                       # Cycle when the warmup percentage was hit.
system.l2.tags.occ_blocks::.writebacks       6.504117                       # Average occupied blocks per requestor
system.l2.tags.occ_blocks::.cpu00.data    2092.265680                       # Average occupied blocks per requestor
system.l2.tags.occ_blocks::.cpu01.data     706.316388                       # Average occupied blocks per requestor
system.l2.tags.occ_blocks::.cpu18.data           1464                       # Average occupied blocks per requestor
system.l2.tags.occ_blocks::.cpu19.data    1604.059728                       # Average occupied blocks per requestor
system.l2.tags.occ_blocks::.switch_cpus00.data     1.051877                       # Average occupied blocks per requestor
system.l2.tags.occ_blocks::.switch_cpus01.data 26889.828383                       # Average occupied blocks per requestor
system.l2.tags.occ_blocks::.switch_cpus19.data     1.726384                       # Average occupied blocks per requestor
system.l2.tags.occ_percent::.writebacks      0.000198                       # Average percentage of cache occupancy
system.l2.tags.occ_percent::.cpu00.data      0.063851                       # Average percentage of cache occupancy
system.l2.tags.occ_percent::.cpu01.data      0.021555                       # Average percentage of cache occupancy
system.l2.tags.occ_percent::.cpu18.data      0.044678                       # Average percentage of cache occupancy
system.l2.tags.occ_percent::.cpu19.data      0.048952                       # Average percentage of cache occupancy
system.l2.tags.occ_percent::.switch_cpus00.data     0.000032                       # Average percentage of cache occupancy
system.l2.tags.occ_percent::.switch_cpus01.data     0.820612                       # Average percentage of cache occupancy
system.l2.tags.occ_percent::.switch_cpus19.data     0.000053                       # Average percentage of cache occupancy
system.l2.tags.occ_percent::total            0.999931                       # Average percentage of cache occupancy
system.l2.tags.occ_task_id_blocks::1024         32764                       # Occupied blocks per task id
system.l2.tags.age_task_id_blocks_1024::0            1                       # Occupied blocks per task id
system.l2.tags.age_task_id_blocks_1024::1           51                       # Occupied blocks per task id
system.l2.tags.age_task_id_blocks_1024::2          396                       # Occupied blocks per task id
system.l2.tags.age_task_id_blocks_1024::3         3453                       # Occupied blocks per task id
system.l2.tags.age_task_id_blocks_1024::4        28863                       # Occupied blocks per task id
system.l2.tags.occ_task_id_percent::1024     0.999878                       # Percentage of cache occupancy per task id
system.l2.tags.tag_accesses                 595110946                       # Number of tag accesses
system.l2.tags.data_accesses                595110946                       # Number of data accesses
system.cpu_voltage_domain.voltage                   1                       # Voltage in Volts

---------- End Simulation Statistics   ----------
