
---------- Begin Simulation Statistics ----------
sim_seconds                                  0.117155                       # Number of seconds simulated
sim_ticks                                117154964262                       # Number of ticks simulated
final_tick                               1168500944254                       # Number of ticks from beginning of simulation (restored from checkpoints and never reset)
sim_freq                                 1000000000000                       # Frequency of simulated ticks
host_inst_rate                                 102268                       # Simulator instruction rate (inst/s)
host_op_rate                                   132485                       # Simulator op (including micro ops) rate (op/s)
host_tick_rate                                3754528                       # Simulator tick rate (ticks/s)
host_mem_usage                               16907676                       # Number of bytes of host memory used
host_seconds                                 31203.64                       # Real time elapsed on the host
sim_insts                                  3191132960                       # Number of instructions simulated
sim_ops                                    4134016077                       # Number of ops (including micro ops) simulated
system.physmem.bytes_read::switch_cpus0.inst         1920                       # Number of bytes read from this memory
system.physmem.bytes_read::switch_cpus0.data       606336                       # Number of bytes read from this memory
system.physmem.bytes_read::switch_cpus1.inst         1664                       # Number of bytes read from this memory
system.physmem.bytes_read::switch_cpus1.data      1029376                       # Number of bytes read from this memory
system.physmem.bytes_read::switch_cpus2.inst         1792                       # Number of bytes read from this memory
system.physmem.bytes_read::switch_cpus2.data      1490560                       # Number of bytes read from this memory
system.physmem.bytes_read::total              3131648                       # Number of bytes read from this memory
system.physmem.bytes_inst_read::switch_cpus0.inst         1920                       # Number of instructions bytes read from this memory
system.physmem.bytes_inst_read::switch_cpus1.inst         1664                       # Number of instructions bytes read from this memory
system.physmem.bytes_inst_read::switch_cpus2.inst         1792                       # Number of instructions bytes read from this memory
system.physmem.bytes_inst_read::total            5376                       # Number of instructions bytes read from this memory
system.physmem.bytes_written::writebacks      1304320                       # Number of bytes written to this memory
system.physmem.bytes_written::total           1304320                       # Number of bytes written to this memory
system.physmem.num_reads::switch_cpus0.inst           15                       # Number of read requests responded to by this memory
system.physmem.num_reads::switch_cpus0.data         4737                       # Number of read requests responded to by this memory
system.physmem.num_reads::switch_cpus1.inst           13                       # Number of read requests responded to by this memory
system.physmem.num_reads::switch_cpus1.data         8042                       # Number of read requests responded to by this memory
system.physmem.num_reads::switch_cpus2.inst           14                       # Number of read requests responded to by this memory
system.physmem.num_reads::switch_cpus2.data        11645                       # Number of read requests responded to by this memory
system.physmem.num_reads::total                 24466                       # Number of read requests responded to by this memory
system.physmem.num_writes::writebacks           10190                       # Number of write requests responded to by this memory
system.physmem.num_writes::functional               0                       # Number of write requests responded to by this memory
system.physmem.num_writes::interrupt                0                       # Number of write requests responded to by this memory
system.physmem.num_writes::switch_cpus0.dtb.walker            0                       # Number of write requests responded to by this memory
system.physmem.num_writes::switch_cpus0.itb.walker            0                       # Number of write requests responded to by this memory
system.physmem.num_writes::switch_cpus0.inst            0                       # Number of write requests responded to by this memory
system.physmem.num_writes::switch_cpus0.data            0                       # Number of write requests responded to by this memory
system.physmem.num_writes::switch_cpus1.dtb.walker            0                       # Number of write requests responded to by this memory
system.physmem.num_writes::switch_cpus1.itb.walker            0                       # Number of write requests responded to by this memory
system.physmem.num_writes::switch_cpus1.inst            0                       # Number of write requests responded to by this memory
system.physmem.num_writes::switch_cpus1.data            0                       # Number of write requests responded to by this memory
system.physmem.num_writes::switch_cpus2.dtb.walker            0                       # Number of write requests responded to by this memory
system.physmem.num_writes::switch_cpus2.itb.walker            0                       # Number of write requests responded to by this memory
system.physmem.num_writes::switch_cpus2.inst            0                       # Number of write requests responded to by this memory
system.physmem.num_writes::switch_cpus2.data            0                       # Number of write requests responded to by this memory
system.physmem.num_writes::cpu0.dtb.walker            0                       # Number of write requests responded to by this memory
system.physmem.num_writes::cpu0.itb.walker            0                       # Number of write requests responded to by this memory
system.physmem.num_writes::cpu0.inst                0                       # Number of write requests responded to by this memory
system.physmem.num_writes::cpu0.data                0                       # Number of write requests responded to by this memory
system.physmem.num_writes::cpu1.dtb.walker            0                       # Number of write requests responded to by this memory
system.physmem.num_writes::cpu1.itb.walker            0                       # Number of write requests responded to by this memory
system.physmem.num_writes::cpu1.inst                0                       # Number of write requests responded to by this memory
system.physmem.num_writes::cpu1.data                0                       # Number of write requests responded to by this memory
system.physmem.num_writes::cpu2.dtb.walker            0                       # Number of write requests responded to by this memory
system.physmem.num_writes::cpu2.itb.walker            0                       # Number of write requests responded to by this memory
system.physmem.num_writes::cpu2.inst                0                       # Number of write requests responded to by this memory
system.physmem.num_writes::cpu2.data                0                       # Number of write requests responded to by this memory
system.physmem.num_writes::total                10190                       # Number of write requests responded to by this memory
system.physmem.bw_read::switch_cpus0.inst        16389                       # Total read bandwidth from this memory (bytes/s)
system.physmem.bw_read::switch_cpus0.data      5175504                       # Total read bandwidth from this memory (bytes/s)
system.physmem.bw_read::switch_cpus1.inst        14203                       # Total read bandwidth from this memory (bytes/s)
system.physmem.bw_read::switch_cpus1.data      8786448                       # Total read bandwidth from this memory (bytes/s)
system.physmem.bw_read::switch_cpus2.inst        15296                       # Total read bandwidth from this memory (bytes/s)
system.physmem.bw_read::switch_cpus2.data     12722978                       # Total read bandwidth from this memory (bytes/s)
system.physmem.bw_read::total                26730818                       # Total read bandwidth from this memory (bytes/s)
system.physmem.bw_inst_read::switch_cpus0.inst        16389                       # Instruction read bandwidth from this memory (bytes/s)
system.physmem.bw_inst_read::switch_cpus1.inst        14203                       # Instruction read bandwidth from this memory (bytes/s)
system.physmem.bw_inst_read::switch_cpus2.inst        15296                       # Instruction read bandwidth from this memory (bytes/s)
system.physmem.bw_inst_read::total              45888                       # Instruction read bandwidth from this memory (bytes/s)
system.physmem.bw_write::writebacks          11133288                       # Write bandwidth from this memory (bytes/s)
system.physmem.bw_write::total               11133288                       # Write bandwidth from this memory (bytes/s)
system.physmem.bw_total::writebacks          11133288                       # Total bandwidth to/from this memory (bytes/s)
system.physmem.bw_total::switch_cpus0.inst        16389                       # Total bandwidth to/from this memory (bytes/s)
system.physmem.bw_total::switch_cpus0.data      5175504                       # Total bandwidth to/from this memory (bytes/s)
system.physmem.bw_total::switch_cpus1.inst        14203                       # Total bandwidth to/from this memory (bytes/s)
system.physmem.bw_total::switch_cpus1.data      8786448                       # Total bandwidth to/from this memory (bytes/s)
system.physmem.bw_total::switch_cpus2.inst        15296                       # Total bandwidth to/from this memory (bytes/s)
system.physmem.bw_total::switch_cpus2.data     12722978                       # Total bandwidth to/from this memory (bytes/s)
system.physmem.bw_total::total               37864106                       # Total bandwidth to/from this memory (bytes/s)
system.switch_cpus0.dtb.inst_hits                   0                       # ITB inst hits
system.switch_cpus0.dtb.inst_misses                 0                       # ITB inst misses
system.switch_cpus0.dtb.read_hits                   0                       # DTB read hits
system.switch_cpus0.dtb.read_misses                 0                       # DTB read misses
system.switch_cpus0.dtb.write_hits                  0                       # DTB write hits
system.switch_cpus0.dtb.write_misses                0                       # DTB write misses
system.switch_cpus0.dtb.flush_tlb                   0                       # Number of times complete TLB was flushed
system.switch_cpus0.dtb.flush_tlb_mva               0                       # Number of times TLB was flushed by MVA
system.switch_cpus0.dtb.flush_tlb_mva_asid            0                       # Number of times TLB was flushed by MVA & ASID
system.switch_cpus0.dtb.flush_tlb_asid              0                       # Number of times TLB was flushed by ASID
system.switch_cpus0.dtb.flush_entries               0                       # Number of entries that have been flushed from TLB
system.switch_cpus0.dtb.align_faults                0                       # Number of TLB faults due to alignment restrictions
system.switch_cpus0.dtb.prefetch_faults             0                       # Number of TLB faults due to prefetch
system.switch_cpus0.dtb.domain_faults               0                       # Number of TLB faults due to domain restrictions
system.switch_cpus0.dtb.perms_faults                0                       # Number of TLB faults due to permissions restrictions
system.switch_cpus0.dtb.read_accesses               0                       # DTB read accesses
system.switch_cpus0.dtb.write_accesses              0                       # DTB write accesses
system.switch_cpus0.dtb.inst_accesses               0                       # ITB inst accesses
system.switch_cpus0.dtb.hits                        0                       # DTB hits
system.switch_cpus0.dtb.misses                      0                       # DTB misses
system.switch_cpus0.dtb.accesses                    0                       # DTB accesses
system.switch_cpus0.itb.inst_hits                   0                       # ITB inst hits
system.switch_cpus0.itb.inst_misses                 0                       # ITB inst misses
system.switch_cpus0.itb.read_hits                   0                       # DTB read hits
system.switch_cpus0.itb.read_misses                 0                       # DTB read misses
system.switch_cpus0.itb.write_hits                  0                       # DTB write hits
system.switch_cpus0.itb.write_misses                0                       # DTB write misses
system.switch_cpus0.itb.flush_tlb                   0                       # Number of times complete TLB was flushed
system.switch_cpus0.itb.flush_tlb_mva               0                       # Number of times TLB was flushed by MVA
system.switch_cpus0.itb.flush_tlb_mva_asid            0                       # Number of times TLB was flushed by MVA & ASID
system.switch_cpus0.itb.flush_tlb_asid              0                       # Number of times TLB was flushed by ASID
system.switch_cpus0.itb.flush_entries               0                       # Number of entries that have been flushed from TLB
system.switch_cpus0.itb.align_faults                0                       # Number of TLB faults due to alignment restrictions
system.switch_cpus0.itb.prefetch_faults             0                       # Number of TLB faults due to prefetch
system.switch_cpus0.itb.domain_faults               0                       # Number of TLB faults due to domain restrictions
system.switch_cpus0.itb.perms_faults                0                       # Number of TLB faults due to permissions restrictions
system.switch_cpus0.itb.read_accesses               0                       # DTB read accesses
system.switch_cpus0.itb.write_accesses              0                       # DTB write accesses
system.switch_cpus0.itb.inst_accesses               0                       # ITB inst accesses
system.switch_cpus0.itb.hits                        0                       # DTB hits
system.switch_cpus0.itb.misses                      0                       # DTB misses
system.switch_cpus0.itb.accesses                    0                       # DTB accesses
system.cpu0.workload.num_syscalls                   0                       # Number of system calls
system.switch_cpus0.numCycles               140642215                       # number of cpu cycles simulated
system.switch_cpus0.numWorkItemsStarted             0                       # number of work items this cpu started
system.switch_cpus0.numWorkItemsCompleted            0                       # number of work items this cpu completed
system.switch_cpus0.BPredUnit.lookups        23691401                       # Number of BP lookups
system.switch_cpus0.BPredUnit.condPredicted     19408858                       # Number of conditional branches predicted
system.switch_cpus0.BPredUnit.condIncorrect      2011027                       # Number of conditional branches incorrect
system.switch_cpus0.BPredUnit.BTBLookups      9635130                       # Number of BTB lookups
system.switch_cpus0.BPredUnit.BTBHits         9360149                       # Number of BTB hits
system.switch_cpus0.BPredUnit.BTBCorrect            0                       # Number of correct BTB predictions (this stat may not work properly.
system.switch_cpus0.BPredUnit.usedRAS         2425013                       # Number of times the RAS was used to get a target.
system.switch_cpus0.BPredUnit.RASInCorrect        92325                       # Number of incorrect RAS predictions.
system.switch_cpus0.fetch.icacheStallCycles    105120725                       # Number of cycles fetch is stalled on an Icache miss
system.switch_cpus0.fetch.Insts             127151409                       # Number of instructions fetch has processed
system.switch_cpus0.fetch.Branches           23691401                       # Number of branches that fetch encountered
system.switch_cpus0.fetch.predictedBranches     11785162                       # Number of branches that fetch has predicted taken
system.switch_cpus0.fetch.Cycles             27550345                       # Number of cycles fetch has run and was not squashing or blocked
system.switch_cpus0.fetch.SquashCycles        6027081                       # Number of cycles fetch has spent squashing
system.switch_cpus0.fetch.BlockedCycles       3462244                       # Number of cycles fetch has spent blocked
system.switch_cpus0.fetch.CacheLines         12299996                       # Number of cache lines fetched
system.switch_cpus0.fetch.IcacheSquashes      1572588                       # Number of outstanding Icache misses that were squashed
system.switch_cpus0.fetch.rateDist::samples    140132078                       # Number of instructions fetched each cycle (Total)
system.switch_cpus0.fetch.rateDist::mean     1.110456                       # Number of instructions fetched each cycle (Total)
system.switch_cpus0.fetch.rateDist::stdev     2.535120                       # Number of instructions fetched each cycle (Total)
system.switch_cpus0.fetch.rateDist::underflows            0      0.00%      0.00% # Number of instructions fetched each cycle (Total)
system.switch_cpus0.fetch.rateDist::0       112581733     80.34%     80.34% # Number of instructions fetched each cycle (Total)
system.switch_cpus0.fetch.rateDist::1         2221613      1.59%     81.93% # Number of instructions fetched each cycle (Total)
system.switch_cpus0.fetch.rateDist::2         3774791      2.69%     84.62% # Number of instructions fetched each cycle (Total)
system.switch_cpus0.fetch.rateDist::3         2195727      1.57%     86.19% # Number of instructions fetched each cycle (Total)
system.switch_cpus0.fetch.rateDist::4         1719472      1.23%     87.41% # Number of instructions fetched each cycle (Total)
system.switch_cpus0.fetch.rateDist::5         1518194      1.08%     88.50% # Number of instructions fetched each cycle (Total)
system.switch_cpus0.fetch.rateDist::6          928356      0.66%     89.16% # Number of instructions fetched each cycle (Total)
system.switch_cpus0.fetch.rateDist::7         2324376      1.66%     90.82% # Number of instructions fetched each cycle (Total)
system.switch_cpus0.fetch.rateDist::8        12867816      9.18%    100.00% # Number of instructions fetched each cycle (Total)
system.switch_cpus0.fetch.rateDist::overflows            0      0.00%    100.00% # Number of instructions fetched each cycle (Total)
system.switch_cpus0.fetch.rateDist::min_value            0                       # Number of instructions fetched each cycle (Total)
system.switch_cpus0.fetch.rateDist::max_value            8                       # Number of instructions fetched each cycle (Total)
system.switch_cpus0.fetch.rateDist::total    140132078                       # Number of instructions fetched each cycle (Total)
system.switch_cpus0.fetch.branchRate         0.168452                       # Number of branch fetches per cycle
system.switch_cpus0.fetch.rate               0.904077                       # Number of inst fetches per cycle
system.switch_cpus0.decode.IdleCycles       104459923                       # Number of cycles decode is idle
system.switch_cpus0.decode.BlockedCycles      4633782                       # Number of cycles decode is blocked
system.switch_cpus0.decode.RunCycles         26968218                       # Number of cycles decode is running
system.switch_cpus0.decode.UnblockCycles        71592                       # Number of cycles decode is unblocking
system.switch_cpus0.decode.SquashCycles       3998555                       # Number of cycles decode is squashing
system.switch_cpus0.decode.BranchResolved      3884388                       # Number of times decode resolved a branch
system.switch_cpus0.decode.BranchMispred          211                       # Number of times decode detected a branch misprediction
system.switch_cpus0.decode.DecodedInsts     153295571                       # Number of instructions handled by decode
system.switch_cpus0.decode.SquashedInsts         1204                       # Number of squashed instructions handled by decode
system.switch_cpus0.rename.SquashCycles       3998555                       # Number of cycles rename is squashing
system.switch_cpus0.rename.IdleCycles       104987021                       # Number of cycles rename is idle
system.switch_cpus0.rename.BlockCycles         598965                       # Number of cycles rename is blocking
system.switch_cpus0.rename.serializeStallCycles      3135805                       # count of cycles rename stalled for serializing inst
system.switch_cpus0.rename.RunCycles         26495602                       # Number of cycles rename is running
system.switch_cpus0.rename.UnblockCycles       916123                       # Number of cycles rename is unblocking
system.switch_cpus0.rename.RenamedInsts     152253482                       # Number of instructions processed by rename
system.switch_cpus0.rename.IQFullEvents         93543                       # Number of times rename has blocked due to IQ full
system.switch_cpus0.rename.LSQFullEvents       528518                       # Number of times rename has blocked due to LSQ full
system.switch_cpus0.rename.RenamedOperands    214941472                       # Number of destination operands rename has renamed
system.switch_cpus0.rename.RenameLookups    708328607                       # Number of register rename lookups that rename has made
system.switch_cpus0.rename.int_rename_lookups    708328607                       # Number of integer rename lookups
system.switch_cpus0.rename.CommittedMaps    171990357                       # Number of HB maps that are committed
system.switch_cpus0.rename.UndoneMaps        42951097                       # Number of HB maps that are undone due to squashing
system.switch_cpus0.rename.serializingInsts        34225                       # count of serializing insts renamed
system.switch_cpus0.rename.tempSerializingInsts        17138                       # count of temporary serializing insts renamed
system.switch_cpus0.rename.skidInsts          2667295                       # count of insts added to the skid buffer
system.switch_cpus0.memDep0.insertedLoads     14161985                       # Number of loads inserted to the mem dependence unit.
system.switch_cpus0.memDep0.insertedStores      7226397                       # Number of stores inserted to the mem dependence unit.
system.switch_cpus0.memDep0.conflictingLoads        70189                       # Number of conflicting loads.
system.switch_cpus0.memDep0.conflictingStores      1644011                       # Number of conflicting stores.
system.switch_cpus0.iq.iqInstsAdded         147248369                       # Number of instructions added to the IQ (excludes non-spec)
system.switch_cpus0.iq.iqNonSpecInstsAdded        34226                       # Number of non-speculative instructions added to the IQ
system.switch_cpus0.iq.iqInstsIssued        138186575                       # Number of instructions issued
system.switch_cpus0.iq.iqSquashedInstsIssued        89590                       # Number of squashed instructions issued
system.switch_cpus0.iq.iqSquashedInstsExamined     22000225                       # Number of squashed instructions iterated over during squash; mainly for profiling
system.switch_cpus0.iq.iqSquashedOperandsExamined     48853330                       # Number of squashed operands that are examined and possibly removed from graph
system.switch_cpus0.iq.iqSquashedNonSpecRemoved           50                       # Number of squashed non-spec instructions that were removed
system.switch_cpus0.iq.issued_per_cycle::samples    140132078                       # Number of insts issued each cycle
system.switch_cpus0.iq.issued_per_cycle::mean     0.986117                       # Number of insts issued each cycle
system.switch_cpus0.iq.issued_per_cycle::stdev     1.547222                       # Number of insts issued each cycle
system.switch_cpus0.iq.issued_per_cycle::underflows            0      0.00%      0.00% # Number of insts issued each cycle
system.switch_cpus0.iq.issued_per_cycle::0     83751904     59.77%     59.77% # Number of insts issued each cycle
system.switch_cpus0.iq.issued_per_cycle::1     21637418     15.44%     75.21% # Number of insts issued each cycle
system.switch_cpus0.iq.issued_per_cycle::2     11648039      8.31%     83.52% # Number of insts issued each cycle
system.switch_cpus0.iq.issued_per_cycle::3      8660231      6.18%     89.70% # Number of insts issued each cycle
system.switch_cpus0.iq.issued_per_cycle::4      8443710      6.03%     95.72% # Number of insts issued each cycle
system.switch_cpus0.iq.issued_per_cycle::5      3122602      2.23%     97.95% # Number of insts issued each cycle
system.switch_cpus0.iq.issued_per_cycle::6      2371773      1.69%     99.65% # Number of insts issued each cycle
system.switch_cpus0.iq.issued_per_cycle::7       317310      0.23%     99.87% # Number of insts issued each cycle
system.switch_cpus0.iq.issued_per_cycle::8       179091      0.13%    100.00% # Number of insts issued each cycle
system.switch_cpus0.iq.issued_per_cycle::overflows            0      0.00%    100.00% # Number of insts issued each cycle
system.switch_cpus0.iq.issued_per_cycle::min_value            0                       # Number of insts issued each cycle
system.switch_cpus0.iq.issued_per_cycle::max_value            8                       # Number of insts issued each cycle
system.switch_cpus0.iq.issued_per_cycle::total    140132078                       # Number of insts issued each cycle
system.switch_cpus0.iq.fu_full::No_OpClass            0      0.00%      0.00% # attempts to use FU when none available
system.switch_cpus0.iq.fu_full::IntAlu         123019     28.01%     28.01% # attempts to use FU when none available
system.switch_cpus0.iq.fu_full::IntMult             0      0.00%     28.01% # attempts to use FU when none available
system.switch_cpus0.iq.fu_full::IntDiv              0      0.00%     28.01% # attempts to use FU when none available
system.switch_cpus0.iq.fu_full::FloatAdd            0      0.00%     28.01% # attempts to use FU when none available
system.switch_cpus0.iq.fu_full::FloatCmp            0      0.00%     28.01% # attempts to use FU when none available
system.switch_cpus0.iq.fu_full::FloatCvt            0      0.00%     28.01% # attempts to use FU when none available
system.switch_cpus0.iq.fu_full::FloatMult            0      0.00%     28.01% # attempts to use FU when none available
system.switch_cpus0.iq.fu_full::FloatDiv            0      0.00%     28.01% # attempts to use FU when none available
system.switch_cpus0.iq.fu_full::FloatSqrt            0      0.00%     28.01% # attempts to use FU when none available
system.switch_cpus0.iq.fu_full::SimdAdd             0      0.00%     28.01% # attempts to use FU when none available
system.switch_cpus0.iq.fu_full::SimdAddAcc            0      0.00%     28.01% # attempts to use FU when none available
system.switch_cpus0.iq.fu_full::SimdAlu             0      0.00%     28.01% # attempts to use FU when none available
system.switch_cpus0.iq.fu_full::SimdCmp             0      0.00%     28.01% # attempts to use FU when none available
system.switch_cpus0.iq.fu_full::SimdCvt             0      0.00%     28.01% # attempts to use FU when none available
system.switch_cpus0.iq.fu_full::SimdMisc            0      0.00%     28.01% # attempts to use FU when none available
system.switch_cpus0.iq.fu_full::SimdMult            0      0.00%     28.01% # attempts to use FU when none available
system.switch_cpus0.iq.fu_full::SimdMultAcc            0      0.00%     28.01% # attempts to use FU when none available
system.switch_cpus0.iq.fu_full::SimdShift            0      0.00%     28.01% # attempts to use FU when none available
system.switch_cpus0.iq.fu_full::SimdShiftAcc            0      0.00%     28.01% # attempts to use FU when none available
system.switch_cpus0.iq.fu_full::SimdSqrt            0      0.00%     28.01% # attempts to use FU when none available
system.switch_cpus0.iq.fu_full::SimdFloatAdd            0      0.00%     28.01% # attempts to use FU when none available
system.switch_cpus0.iq.fu_full::SimdFloatAlu            0      0.00%     28.01% # attempts to use FU when none available
system.switch_cpus0.iq.fu_full::SimdFloatCmp            0      0.00%     28.01% # attempts to use FU when none available
system.switch_cpus0.iq.fu_full::SimdFloatCvt            0      0.00%     28.01% # attempts to use FU when none available
system.switch_cpus0.iq.fu_full::SimdFloatDiv            0      0.00%     28.01% # attempts to use FU when none available
system.switch_cpus0.iq.fu_full::SimdFloatMisc            0      0.00%     28.01% # attempts to use FU when none available
system.switch_cpus0.iq.fu_full::SimdFloatMult            0      0.00%     28.01% # attempts to use FU when none available
system.switch_cpus0.iq.fu_full::SimdFloatMultAcc            0      0.00%     28.01% # attempts to use FU when none available
system.switch_cpus0.iq.fu_full::SimdFloatSqrt            0      0.00%     28.01% # attempts to use FU when none available
system.switch_cpus0.iq.fu_full::MemRead        164487     37.45%     65.46% # attempts to use FU when none available
system.switch_cpus0.iq.fu_full::MemWrite       151718     34.54%    100.00% # attempts to use FU when none available
system.switch_cpus0.iq.fu_full::IprAccess            0      0.00%    100.00% # attempts to use FU when none available
system.switch_cpus0.iq.fu_full::InstPrefetch            0      0.00%    100.00% # attempts to use FU when none available
system.switch_cpus0.iq.FU_type_0::No_OpClass            0      0.00%      0.00% # Type of FU issued
system.switch_cpus0.iq.FU_type_0::IntAlu    116634871     84.40%     84.40% # Type of FU issued
system.switch_cpus0.iq.FU_type_0::IntMult      1870528      1.35%     85.76% # Type of FU issued
system.switch_cpus0.iq.FU_type_0::IntDiv            0      0.00%     85.76% # Type of FU issued
system.switch_cpus0.iq.FU_type_0::FloatAdd            0      0.00%     85.76% # Type of FU issued
system.switch_cpus0.iq.FU_type_0::FloatCmp            0      0.00%     85.76% # Type of FU issued
system.switch_cpus0.iq.FU_type_0::FloatCvt            0      0.00%     85.76% # Type of FU issued
system.switch_cpus0.iq.FU_type_0::FloatMult            0      0.00%     85.76% # Type of FU issued
system.switch_cpus0.iq.FU_type_0::FloatDiv            0      0.00%     85.76% # Type of FU issued
system.switch_cpus0.iq.FU_type_0::FloatSqrt            0      0.00%     85.76% # Type of FU issued
system.switch_cpus0.iq.FU_type_0::SimdAdd            0      0.00%     85.76% # Type of FU issued
system.switch_cpus0.iq.FU_type_0::SimdAddAcc            0      0.00%     85.76% # Type of FU issued
system.switch_cpus0.iq.FU_type_0::SimdAlu            0      0.00%     85.76% # Type of FU issued
system.switch_cpus0.iq.FU_type_0::SimdCmp            0      0.00%     85.76% # Type of FU issued
system.switch_cpus0.iq.FU_type_0::SimdCvt            0      0.00%     85.76% # Type of FU issued
system.switch_cpus0.iq.FU_type_0::SimdMisc            0      0.00%     85.76% # Type of FU issued
system.switch_cpus0.iq.FU_type_0::SimdMult            0      0.00%     85.76% # Type of FU issued
system.switch_cpus0.iq.FU_type_0::SimdMultAcc            0      0.00%     85.76% # Type of FU issued
system.switch_cpus0.iq.FU_type_0::SimdShift            0      0.00%     85.76% # Type of FU issued
system.switch_cpus0.iq.FU_type_0::SimdShiftAcc            0      0.00%     85.76% # Type of FU issued
system.switch_cpus0.iq.FU_type_0::SimdSqrt            0      0.00%     85.76% # Type of FU issued
system.switch_cpus0.iq.FU_type_0::SimdFloatAdd            0      0.00%     85.76% # Type of FU issued
system.switch_cpus0.iq.FU_type_0::SimdFloatAlu            0      0.00%     85.76% # Type of FU issued
system.switch_cpus0.iq.FU_type_0::SimdFloatCmp            0      0.00%     85.76% # Type of FU issued
system.switch_cpus0.iq.FU_type_0::SimdFloatCvt            0      0.00%     85.76% # Type of FU issued
system.switch_cpus0.iq.FU_type_0::SimdFloatDiv            0      0.00%     85.76% # Type of FU issued
system.switch_cpus0.iq.FU_type_0::SimdFloatMisc        17087      0.01%     85.77% # Type of FU issued
system.switch_cpus0.iq.FU_type_0::SimdFloatMult            0      0.00%     85.77% # Type of FU issued
system.switch_cpus0.iq.FU_type_0::SimdFloatMultAcc            0      0.00%     85.77% # Type of FU issued
system.switch_cpus0.iq.FU_type_0::SimdFloatSqrt            0      0.00%     85.77% # Type of FU issued
system.switch_cpus0.iq.FU_type_0::MemRead     12462874      9.02%     94.79% # Type of FU issued
system.switch_cpus0.iq.FU_type_0::MemWrite      7201215      5.21%    100.00% # Type of FU issued
system.switch_cpus0.iq.FU_type_0::IprAccess            0      0.00%    100.00% # Type of FU issued
system.switch_cpus0.iq.FU_type_0::InstPrefetch            0      0.00%    100.00% # Type of FU issued
system.switch_cpus0.iq.FU_type_0::total     138186575                       # Type of FU issued
system.switch_cpus0.iq.rate                  0.982540                       # Inst issue rate
system.switch_cpus0.iq.fu_busy_cnt             439224                       # FU busy when requested
system.switch_cpus0.iq.fu_busy_rate          0.003178                       # FU busy rate (busy events/executed inst)
system.switch_cpus0.iq.int_inst_queue_reads    417034036                       # Number of integer instruction queue reads
system.switch_cpus0.iq.int_inst_queue_writes    169283054                       # Number of integer instruction queue writes
system.switch_cpus0.iq.int_inst_queue_wakeup_accesses    135233458                       # Number of integer instruction queue wakeup accesses
system.switch_cpus0.iq.fp_inst_queue_reads            0                       # Number of floating instruction queue reads
system.switch_cpus0.iq.fp_inst_queue_writes            0                       # Number of floating instruction queue writes
system.switch_cpus0.iq.fp_inst_queue_wakeup_accesses            0                       # Number of floating instruction queue wakeup accesses
system.switch_cpus0.iq.int_alu_accesses     138625799                       # Number of integer alu accesses
system.switch_cpus0.iq.fp_alu_accesses              0                       # Number of floating point alu accesses
system.switch_cpus0.iew.lsq.thread0.forwLoads       281780                       # Number of loads that had data forwarded from stores
system.switch_cpus0.iew.lsq.thread0.invAddrLoads            0                       # Number of loads ignored due to an invalid address
system.switch_cpus0.iew.lsq.thread0.squashedLoads      2986178                       # Number of loads squashed
system.switch_cpus0.iew.lsq.thread0.ignoredResponses            2                       # Number of memory responses ignored because the instruction is squashed
system.switch_cpus0.iew.lsq.thread0.memOrderViolation          234                       # Number of memory ordering violations
system.switch_cpus0.iew.lsq.thread0.squashedStores       119374                       # Number of stores squashed
system.switch_cpus0.iew.lsq.thread0.invAddrSwpfs            0                       # Number of software prefetches ignored due to an invalid address
system.switch_cpus0.iew.lsq.thread0.blockedLoads            0                       # Number of blocked loads due to partial load-store forwarding
system.switch_cpus0.iew.lsq.thread0.rescheduledLoads            0                       # Number of loads that were rescheduled
system.switch_cpus0.iew.lsq.thread0.cacheBlocked            0                       # Number of times an access to memory failed due to the cache being blocked
system.switch_cpus0.iew.iewIdleCycles               0                       # Number of cycles IEW is idle
system.switch_cpus0.iew.iewSquashCycles       3998555                       # Number of cycles IEW is squashing
system.switch_cpus0.iew.iewBlockCycles         401353                       # Number of cycles IEW is blocking
system.switch_cpus0.iew.iewUnblockCycles        53491                       # Number of cycles IEW is unblocking
system.switch_cpus0.iew.iewDispatchedInsts    147282595                       # Number of instructions dispatched to IQ
system.switch_cpus0.iew.iewDispSquashedInsts       767722                       # Number of squashed instructions skipped by dispatch
system.switch_cpus0.iew.iewDispLoadInsts     14161985                       # Number of dispatched load instructions
system.switch_cpus0.iew.iewDispStoreInsts      7226397                       # Number of dispatched store instructions
system.switch_cpus0.iew.iewDispNonSpecInsts        17138                       # Number of dispatched non-speculative instructions
system.switch_cpus0.iew.iewIQFullEvents         43258                       # Number of times the IQ has become full, causing a stall
system.switch_cpus0.iew.iewLSQFullEvents            0                       # Number of times the LSQ has become full, causing a stall
system.switch_cpus0.iew.memOrderViolationEvents          234                       # Number of memory order violations
system.switch_cpus0.iew.predictedTakenIncorrect      1154946                       # Number of branches that were predicted taken incorrectly
system.switch_cpus0.iew.predictedNotTakenIncorrect      1071100                       # Number of branches that were predicted not taken incorrectly
system.switch_cpus0.iew.branchMispredicts      2226046                       # Number of branch mispredicts detected at execute
system.switch_cpus0.iew.iewExecutedInsts    136033394                       # Number of executed instructions
system.switch_cpus0.iew.iewExecLoadInsts     12149097                       # Number of load instructions executed
system.switch_cpus0.iew.iewExecSquashedInsts      2153175                       # Number of squashed instructions skipped in execute
system.switch_cpus0.iew.exec_swp                    0                       # number of swp insts executed
system.switch_cpus0.iew.exec_nop                    0                       # number of nop insts executed
system.switch_cpus0.iew.exec_refs            19350112                       # number of memory reference insts executed
system.switch_cpus0.iew.exec_branches        19249814                       # Number of branches executed
system.switch_cpus0.iew.exec_stores           7201015                       # Number of stores executed
system.switch_cpus0.iew.exec_rate            0.967230                       # Inst execution rate
system.switch_cpus0.iew.wb_sent             135233518                       # cumulative count of insts sent to commit
system.switch_cpus0.iew.wb_count            135233458                       # cumulative count of insts written-back
system.switch_cpus0.iew.wb_producers         79957653                       # num instructions producing a value
system.switch_cpus0.iew.wb_consumers        221526591                       # num instructions consuming a value
system.switch_cpus0.iew.wb_penalized                0                       # number of instrctions required to write to 'other' IQ
system.switch_cpus0.iew.wb_rate              0.961542                       # insts written-back per cycle
system.switch_cpus0.iew.wb_fanout            0.360939                       # average fanout of values written-back
system.switch_cpus0.iew.wb_penalized_rate            0                       # fraction of instructions written-back that wrote to 'other' IQ
system.switch_cpus0.commit.commitCommittedInsts    100000001                       # The number of committed instructions
system.switch_cpus0.commit.commitCommittedOps    123264152                       # The number of committed instructions
system.switch_cpus0.commit.commitSquashedInsts     24018656                       # The number of squashed insts skipped by commit
system.switch_cpus0.commit.commitNonSpecStalls        34176                       # The number of times commit has been forced to stall to communicate backwards
system.switch_cpus0.commit.branchMispredicts      2027956                       # The number of times a branch was mispredicted
system.switch_cpus0.commit.committed_per_cycle::samples    136133523                       # Number of insts commited each cycle
system.switch_cpus0.commit.committed_per_cycle::mean     0.905465                       # Number of insts commited each cycle
system.switch_cpus0.commit.committed_per_cycle::stdev     1.714207                       # Number of insts commited each cycle
system.switch_cpus0.commit.committed_per_cycle::underflows            0      0.00%      0.00% # Number of insts commited each cycle
system.switch_cpus0.commit.committed_per_cycle::0     86279373     63.38%     63.38% # Number of insts commited each cycle
system.switch_cpus0.commit.committed_per_cycle::1     24031005     17.65%     81.03% # Number of insts commited each cycle
system.switch_cpus0.commit.committed_per_cycle::2      9395846      6.90%     87.93% # Number of insts commited each cycle
system.switch_cpus0.commit.committed_per_cycle::3      4941109      3.63%     91.56% # Number of insts commited each cycle
system.switch_cpus0.commit.committed_per_cycle::4      4205351      3.09%     94.65% # Number of insts commited each cycle
system.switch_cpus0.commit.committed_per_cycle::5      2023642      1.49%     96.14% # Number of insts commited each cycle
system.switch_cpus0.commit.committed_per_cycle::6       952329      0.70%     96.84% # Number of insts commited each cycle
system.switch_cpus0.commit.committed_per_cycle::7      1474404      1.08%     97.92% # Number of insts commited each cycle
system.switch_cpus0.commit.committed_per_cycle::8      2830464      2.08%    100.00% # Number of insts commited each cycle
system.switch_cpus0.commit.committed_per_cycle::overflows            0      0.00%    100.00% # Number of insts commited each cycle
system.switch_cpus0.commit.committed_per_cycle::min_value            0                       # Number of insts commited each cycle
system.switch_cpus0.commit.committed_per_cycle::max_value            8                       # Number of insts commited each cycle
system.switch_cpus0.commit.committed_per_cycle::total    136133523                       # Number of insts commited each cycle
system.switch_cpus0.commit.committedInsts    100000001                       # Number of instructions committed
system.switch_cpus0.commit.committedOps     123264152                       # Number of ops (including micro ops) committed
system.switch_cpus0.commit.swp_count                0                       # Number of s/w prefetches committed
system.switch_cpus0.commit.refs              18282827                       # Number of memory references committed
system.switch_cpus0.commit.loads             11175804                       # Number of loads committed
system.switch_cpus0.commit.membars              17088                       # Number of memory barriers committed
system.switch_cpus0.commit.branches          17884103                       # Number of branches committed
system.switch_cpus0.commit.fp_insts                 0                       # Number of committed floating point instructions.
system.switch_cpus0.commit.int_insts        110969711                       # Number of committed integer instructions.
system.switch_cpus0.commit.function_calls      2549483                       # Number of function calls committed.
system.switch_cpus0.commit.bw_lim_events      2830464                       # number cycles where commit BW limit reached
system.switch_cpus0.commit.bw_limited               0                       # number of insts not committed due to BW limits
system.switch_cpus0.rob.rob_reads           280585867                       # The number of ROB reads
system.switch_cpus0.rob.rob_writes          298565822                       # The number of ROB writes
system.switch_cpus0.timesIdled                  23581                       # Number of times that the entire CPU went into an idle state and unscheduled itself
system.switch_cpus0.idleCycles                 510137                       # Total number of cycles that the CPU has spent unscheduled due to idling
system.switch_cpus0.committedInsts          100000001                       # Number of Instructions Simulated
system.switch_cpus0.committedOps            123264152                       # Number of Ops (including micro ops) Simulated
system.switch_cpus0.committedInsts_total    100000001                       # Number of Instructions Simulated
system.switch_cpus0.cpi                      1.406422                       # CPI: Cycles Per Instruction
system.switch_cpus0.cpi_total                1.406422                       # CPI: Total CPI of All Threads
system.switch_cpus0.ipc                      0.711024                       # IPC: Instructions Per Cycle
system.switch_cpus0.ipc_total                0.711024                       # IPC: Total IPC of All Threads
system.switch_cpus0.int_regfile_reads       611715887                       # number of integer regfile reads
system.switch_cpus0.int_regfile_writes      188813881                       # number of integer regfile writes
system.switch_cpus0.misc_regfile_reads      143083611                       # number of misc regfile reads
system.switch_cpus0.misc_regfile_writes         34176                       # number of misc regfile writes
system.switch_cpus1.dtb.inst_hits                   0                       # ITB inst hits
system.switch_cpus1.dtb.inst_misses                 0                       # ITB inst misses
system.switch_cpus1.dtb.read_hits                   0                       # DTB read hits
system.switch_cpus1.dtb.read_misses                 0                       # DTB read misses
system.switch_cpus1.dtb.write_hits                  0                       # DTB write hits
system.switch_cpus1.dtb.write_misses                0                       # DTB write misses
system.switch_cpus1.dtb.flush_tlb                   0                       # Number of times complete TLB was flushed
system.switch_cpus1.dtb.flush_tlb_mva               0                       # Number of times TLB was flushed by MVA
system.switch_cpus1.dtb.flush_tlb_mva_asid            0                       # Number of times TLB was flushed by MVA & ASID
system.switch_cpus1.dtb.flush_tlb_asid              0                       # Number of times TLB was flushed by ASID
system.switch_cpus1.dtb.flush_entries               0                       # Number of entries that have been flushed from TLB
system.switch_cpus1.dtb.align_faults                0                       # Number of TLB faults due to alignment restrictions
system.switch_cpus1.dtb.prefetch_faults             0                       # Number of TLB faults due to prefetch
system.switch_cpus1.dtb.domain_faults               0                       # Number of TLB faults due to domain restrictions
system.switch_cpus1.dtb.perms_faults                0                       # Number of TLB faults due to permissions restrictions
system.switch_cpus1.dtb.read_accesses               0                       # DTB read accesses
system.switch_cpus1.dtb.write_accesses              0                       # DTB write accesses
system.switch_cpus1.dtb.inst_accesses               0                       # ITB inst accesses
system.switch_cpus1.dtb.hits                        0                       # DTB hits
system.switch_cpus1.dtb.misses                      0                       # DTB misses
system.switch_cpus1.dtb.accesses                    0                       # DTB accesses
system.switch_cpus1.itb.inst_hits                   0                       # ITB inst hits
system.switch_cpus1.itb.inst_misses                 0                       # ITB inst misses
system.switch_cpus1.itb.read_hits                   0                       # DTB read hits
system.switch_cpus1.itb.read_misses                 0                       # DTB read misses
system.switch_cpus1.itb.write_hits                  0                       # DTB write hits
system.switch_cpus1.itb.write_misses                0                       # DTB write misses
system.switch_cpus1.itb.flush_tlb                   0                       # Number of times complete TLB was flushed
system.switch_cpus1.itb.flush_tlb_mva               0                       # Number of times TLB was flushed by MVA
system.switch_cpus1.itb.flush_tlb_mva_asid            0                       # Number of times TLB was flushed by MVA & ASID
system.switch_cpus1.itb.flush_tlb_asid              0                       # Number of times TLB was flushed by ASID
system.switch_cpus1.itb.flush_entries               0                       # Number of entries that have been flushed from TLB
system.switch_cpus1.itb.align_faults                0                       # Number of TLB faults due to alignment restrictions
system.switch_cpus1.itb.prefetch_faults             0                       # Number of TLB faults due to prefetch
system.switch_cpus1.itb.domain_faults               0                       # Number of TLB faults due to domain restrictions
system.switch_cpus1.itb.perms_faults                0                       # Number of TLB faults due to permissions restrictions
system.switch_cpus1.itb.read_accesses               0                       # DTB read accesses
system.switch_cpus1.itb.write_accesses              0                       # DTB write accesses
system.switch_cpus1.itb.inst_accesses               0                       # ITB inst accesses
system.switch_cpus1.itb.hits                        0                       # DTB hits
system.switch_cpus1.itb.misses                      0                       # DTB misses
system.switch_cpus1.itb.accesses                    0                       # DTB accesses
system.cpu1.workload.num_syscalls                   0                       # Number of system calls
system.switch_cpus1.numCycles               140642215                       # number of cpu cycles simulated
system.switch_cpus1.numWorkItemsStarted             0                       # number of work items this cpu started
system.switch_cpus1.numWorkItemsCompleted            0                       # number of work items this cpu completed
system.switch_cpus1.BPredUnit.lookups        21880677                       # Number of BP lookups
system.switch_cpus1.BPredUnit.condPredicted     18039445                       # Number of conditional branches predicted
system.switch_cpus1.BPredUnit.condIncorrect      1947929                       # Number of conditional branches incorrect
system.switch_cpus1.BPredUnit.BTBLookups      8929592                       # Number of BTB lookups
system.switch_cpus1.BPredUnit.BTBHits         8389562                       # Number of BTB hits
system.switch_cpus1.BPredUnit.BTBCorrect            0                       # Number of correct BTB predictions (this stat may not work properly.
system.switch_cpus1.BPredUnit.usedRAS         2292656                       # Number of times the RAS was used to get a target.
system.switch_cpus1.BPredUnit.RASInCorrect        85837                       # Number of incorrect RAS predictions.
system.switch_cpus1.fetch.icacheStallCycles    106465925                       # Number of cycles fetch is stalled on an Icache miss
system.switch_cpus1.fetch.Insts             120190144                       # Number of instructions fetch has processed
system.switch_cpus1.fetch.Branches           21880677                       # Number of branches that fetch encountered
system.switch_cpus1.fetch.predictedBranches     10682218                       # Number of branches that fetch has predicted taken
system.switch_cpus1.fetch.Cycles             25120554                       # Number of cycles fetch has run and was not squashing or blocked
system.switch_cpus1.fetch.SquashCycles        5777097                       # Number of cycles fetch has spent squashing
system.switch_cpus1.fetch.BlockedCycles       3045150                       # Number of cycles fetch has spent blocked
system.switch_cpus1.fetch.CacheLines         12351794                       # Number of cache lines fetched
system.switch_cpus1.fetch.IcacheSquashes      1611959                       # Number of outstanding Icache misses that were squashed
system.switch_cpus1.fetch.rateDist::samples    138428406                       # Number of instructions fetched each cycle (Total)
system.switch_cpus1.fetch.rateDist::mean     1.065938                       # Number of instructions fetched each cycle (Total)
system.switch_cpus1.fetch.rateDist::stdev     2.486096                       # Number of instructions fetched each cycle (Total)
system.switch_cpus1.fetch.rateDist::underflows            0      0.00%      0.00% # Number of instructions fetched each cycle (Total)
system.switch_cpus1.fetch.rateDist::0       113307852     81.85%     81.85% # Number of instructions fetched each cycle (Total)
system.switch_cpus1.fetch.rateDist::1         1308963      0.95%     82.80% # Number of instructions fetched each cycle (Total)
system.switch_cpus1.fetch.rateDist::2         1857645      1.34%     84.14% # Number of instructions fetched each cycle (Total)
system.switch_cpus1.fetch.rateDist::3         2423529      1.75%     85.89% # Number of instructions fetched each cycle (Total)
system.switch_cpus1.fetch.rateDist::4         2718855      1.96%     87.86% # Number of instructions fetched each cycle (Total)
system.switch_cpus1.fetch.rateDist::5         2023300      1.46%     89.32% # Number of instructions fetched each cycle (Total)
system.switch_cpus1.fetch.rateDist::6         1166230      0.84%     90.16% # Number of instructions fetched each cycle (Total)
system.switch_cpus1.fetch.rateDist::7         1704234      1.23%     91.39% # Number of instructions fetched each cycle (Total)
system.switch_cpus1.fetch.rateDist::8        11917798      8.61%    100.00% # Number of instructions fetched each cycle (Total)
system.switch_cpus1.fetch.rateDist::overflows            0      0.00%    100.00% # Number of instructions fetched each cycle (Total)
system.switch_cpus1.fetch.rateDist::min_value            0                       # Number of instructions fetched each cycle (Total)
system.switch_cpus1.fetch.rateDist::max_value            8                       # Number of instructions fetched each cycle (Total)
system.switch_cpus1.fetch.rateDist::total    138428406                       # Number of instructions fetched each cycle (Total)
system.switch_cpus1.fetch.branchRate         0.155577                       # Number of branch fetches per cycle
system.switch_cpus1.fetch.rate               0.854581                       # Number of inst fetches per cycle
system.switch_cpus1.decode.IdleCycles       105290073                       # Number of cycles decode is idle
system.switch_cpus1.decode.BlockedCycles      4614392                       # Number of cycles decode is blocked
system.switch_cpus1.decode.RunCycles         24669516                       # Number of cycles decode is running
system.switch_cpus1.decode.UnblockCycles        57887                       # Number of cycles decode is unblocking
system.switch_cpus1.decode.SquashCycles       3796537                       # Number of cycles decode is squashing
system.switch_cpus1.decode.BranchResolved      3493314                       # Number of times decode resolved a branch
system.switch_cpus1.decode.BranchMispred          243                       # Number of times decode detected a branch misprediction
system.switch_cpus1.decode.DecodedInsts     145001166                       # Number of instructions handled by decode
system.switch_cpus1.decode.SquashedInsts         1301                       # Number of squashed instructions handled by decode
system.switch_cpus1.rename.SquashCycles       3796537                       # Number of cycles rename is squashing
system.switch_cpus1.rename.IdleCycles       106023268                       # Number of cycles rename is idle
system.switch_cpus1.rename.BlockCycles        1044929                       # Number of cycles rename is blocking
system.switch_cpus1.rename.serializeStallCycles      2258004                       # count of cycles rename stalled for serializing inst
system.switch_cpus1.rename.RunCycles         23997236                       # Number of cycles rename is running
system.switch_cpus1.rename.UnblockCycles      1308425                       # Number of cycles rename is unblocking
system.switch_cpus1.rename.RenamedInsts     144039579                       # Number of instructions processed by rename
system.switch_cpus1.rename.ROBFullEvents          627                       # Number of times rename has blocked due to ROB full
system.switch_cpus1.rename.IQFullEvents        264354                       # Number of times rename has blocked due to IQ full
system.switch_cpus1.rename.LSQFullEvents       540912                       # Number of times rename has blocked due to LSQ full
system.switch_cpus1.rename.FullRegisterEvents          411                       # Number of times there has been no free registers
system.switch_cpus1.rename.RenamedOperands    200866585                       # Number of destination operands rename has renamed
system.switch_cpus1.rename.RenameLookups    672913477                       # Number of register rename lookups that rename has made
system.switch_cpus1.rename.int_rename_lookups    672913477                       # Number of integer rename lookups
system.switch_cpus1.rename.CommittedMaps    164061093                       # Number of HB maps that are committed
system.switch_cpus1.rename.UndoneMaps        36805480                       # Number of HB maps that are undone due to squashing
system.switch_cpus1.rename.serializingInsts        37973                       # count of serializing insts renamed
system.switch_cpus1.rename.tempSerializingInsts        21956                       # count of temporary serializing insts renamed
system.switch_cpus1.rename.skidInsts          3953026                       # count of insts added to the skid buffer
system.switch_cpus1.memDep0.insertedLoads     13680513                       # Number of loads inserted to the mem dependence unit.
system.switch_cpus1.memDep0.insertedStores      7112057                       # Number of stores inserted to the mem dependence unit.
system.switch_cpus1.memDep0.conflictingLoads       117712                       # Number of conflicting loads.
system.switch_cpus1.memDep0.conflictingStores      1548933                       # Number of conflicting stores.
system.switch_cpus1.iq.iqInstsAdded         140001247                       # Number of instructions added to the IQ (excludes non-spec)
system.switch_cpus1.iq.iqNonSpecInstsAdded        37936                       # Number of non-speculative instructions added to the IQ
system.switch_cpus1.iq.iqInstsIssued        130975616                       # Number of instructions issued
system.switch_cpus1.iq.iqSquashedInstsIssued        25682                       # Number of squashed instructions issued
system.switch_cpus1.iq.iqSquashedInstsExamined     20201921                       # Number of squashed instructions iterated over during squash; mainly for profiling
system.switch_cpus1.iq.iqSquashedOperandsExamined     47725112                       # Number of squashed operands that are examined and possibly removed from graph
system.switch_cpus1.iq.iqSquashedNonSpecRemoved         5904                       # Number of squashed non-spec instructions that were removed
system.switch_cpus1.iq.issued_per_cycle::samples    138428406                       # Number of insts issued each cycle
system.switch_cpus1.iq.issued_per_cycle::mean     0.946161                       # Number of insts issued each cycle
system.switch_cpus1.iq.issued_per_cycle::stdev     1.505940                       # Number of insts issued each cycle
system.switch_cpus1.iq.issued_per_cycle::underflows            0      0.00%      0.00% # Number of insts issued each cycle
system.switch_cpus1.iq.issued_per_cycle::0     83011842     59.97%     59.97% # Number of insts issued each cycle
system.switch_cpus1.iq.issued_per_cycle::1     22313668     16.12%     76.09% # Number of insts issued each cycle
system.switch_cpus1.iq.issued_per_cycle::2     12365392      8.93%     85.02% # Number of insts issued each cycle
system.switch_cpus1.iq.issued_per_cycle::3      7975648      5.76%     90.78% # Number of insts issued each cycle
system.switch_cpus1.iq.issued_per_cycle::4      7320337      5.29%     96.07% # Number of insts issued each cycle
system.switch_cpus1.iq.issued_per_cycle::5      2919038      2.11%     98.18% # Number of insts issued each cycle
system.switch_cpus1.iq.issued_per_cycle::6      1773055      1.28%     99.46% # Number of insts issued each cycle
system.switch_cpus1.iq.issued_per_cycle::7       506056      0.37%     99.82% # Number of insts issued each cycle
system.switch_cpus1.iq.issued_per_cycle::8       243370      0.18%    100.00% # Number of insts issued each cycle
system.switch_cpus1.iq.issued_per_cycle::overflows            0      0.00%    100.00% # Number of insts issued each cycle
system.switch_cpus1.iq.issued_per_cycle::min_value            0                       # Number of insts issued each cycle
system.switch_cpus1.iq.issued_per_cycle::max_value            8                       # Number of insts issued each cycle
system.switch_cpus1.iq.issued_per_cycle::total    138428406                       # Number of insts issued each cycle
system.switch_cpus1.iq.fu_full::No_OpClass            0      0.00%      0.00% # attempts to use FU when none available
system.switch_cpus1.iq.fu_full::IntAlu          62790     22.70%     22.70% # attempts to use FU when none available
system.switch_cpus1.iq.fu_full::IntMult             0      0.00%     22.70% # attempts to use FU when none available
system.switch_cpus1.iq.fu_full::IntDiv              0      0.00%     22.70% # attempts to use FU when none available
system.switch_cpus1.iq.fu_full::FloatAdd            0      0.00%     22.70% # attempts to use FU when none available
system.switch_cpus1.iq.fu_full::FloatCmp            0      0.00%     22.70% # attempts to use FU when none available
system.switch_cpus1.iq.fu_full::FloatCvt            0      0.00%     22.70% # attempts to use FU when none available
system.switch_cpus1.iq.fu_full::FloatMult            0      0.00%     22.70% # attempts to use FU when none available
system.switch_cpus1.iq.fu_full::FloatDiv            0      0.00%     22.70% # attempts to use FU when none available
system.switch_cpus1.iq.fu_full::FloatSqrt            0      0.00%     22.70% # attempts to use FU when none available
system.switch_cpus1.iq.fu_full::SimdAdd             0      0.00%     22.70% # attempts to use FU when none available
system.switch_cpus1.iq.fu_full::SimdAddAcc            0      0.00%     22.70% # attempts to use FU when none available
system.switch_cpus1.iq.fu_full::SimdAlu             0      0.00%     22.70% # attempts to use FU when none available
system.switch_cpus1.iq.fu_full::SimdCmp             0      0.00%     22.70% # attempts to use FU when none available
system.switch_cpus1.iq.fu_full::SimdCvt             0      0.00%     22.70% # attempts to use FU when none available
system.switch_cpus1.iq.fu_full::SimdMisc            0      0.00%     22.70% # attempts to use FU when none available
system.switch_cpus1.iq.fu_full::SimdMult            0      0.00%     22.70% # attempts to use FU when none available
system.switch_cpus1.iq.fu_full::SimdMultAcc            0      0.00%     22.70% # attempts to use FU when none available
system.switch_cpus1.iq.fu_full::SimdShift            0      0.00%     22.70% # attempts to use FU when none available
system.switch_cpus1.iq.fu_full::SimdShiftAcc            0      0.00%     22.70% # attempts to use FU when none available
system.switch_cpus1.iq.fu_full::SimdSqrt            0      0.00%     22.70% # attempts to use FU when none available
system.switch_cpus1.iq.fu_full::SimdFloatAdd            0      0.00%     22.70% # attempts to use FU when none available
system.switch_cpus1.iq.fu_full::SimdFloatAlu            0      0.00%     22.70% # attempts to use FU when none available
system.switch_cpus1.iq.fu_full::SimdFloatCmp            0      0.00%     22.70% # attempts to use FU when none available
system.switch_cpus1.iq.fu_full::SimdFloatCvt            0      0.00%     22.70% # attempts to use FU when none available
system.switch_cpus1.iq.fu_full::SimdFloatDiv            0      0.00%     22.70% # attempts to use FU when none available
system.switch_cpus1.iq.fu_full::SimdFloatMisc            0      0.00%     22.70% # attempts to use FU when none available
system.switch_cpus1.iq.fu_full::SimdFloatMult            0      0.00%     22.70% # attempts to use FU when none available
system.switch_cpus1.iq.fu_full::SimdFloatMultAcc            0      0.00%     22.70% # attempts to use FU when none available
system.switch_cpus1.iq.fu_full::SimdFloatSqrt            0      0.00%     22.70% # attempts to use FU when none available
system.switch_cpus1.iq.fu_full::MemRead         92281     33.36%     56.06% # attempts to use FU when none available
system.switch_cpus1.iq.fu_full::MemWrite       121532     43.94%    100.00% # attempts to use FU when none available
system.switch_cpus1.iq.fu_full::IprAccess            0      0.00%    100.00% # attempts to use FU when none available
system.switch_cpus1.iq.fu_full::InstPrefetch            0      0.00%    100.00% # attempts to use FU when none available
system.switch_cpus1.iq.FU_type_0::No_OpClass            0      0.00%      0.00% # Type of FU issued
system.switch_cpus1.iq.FU_type_0::IntAlu    109959649     83.95%     83.95% # Type of FU issued
system.switch_cpus1.iq.FU_type_0::IntMult      2000370      1.53%     85.48% # Type of FU issued
system.switch_cpus1.iq.FU_type_0::IntDiv            0      0.00%     85.48% # Type of FU issued
system.switch_cpus1.iq.FU_type_0::FloatAdd            0      0.00%     85.48% # Type of FU issued
system.switch_cpus1.iq.FU_type_0::FloatCmp            0      0.00%     85.48% # Type of FU issued
system.switch_cpus1.iq.FU_type_0::FloatCvt            0      0.00%     85.48% # Type of FU issued
system.switch_cpus1.iq.FU_type_0::FloatMult            0      0.00%     85.48% # Type of FU issued
system.switch_cpus1.iq.FU_type_0::FloatDiv            0      0.00%     85.48% # Type of FU issued
system.switch_cpus1.iq.FU_type_0::FloatSqrt            0      0.00%     85.48% # Type of FU issued
system.switch_cpus1.iq.FU_type_0::SimdAdd            0      0.00%     85.48% # Type of FU issued
system.switch_cpus1.iq.FU_type_0::SimdAddAcc            0      0.00%     85.48% # Type of FU issued
system.switch_cpus1.iq.FU_type_0::SimdAlu            0      0.00%     85.48% # Type of FU issued
system.switch_cpus1.iq.FU_type_0::SimdCmp            0      0.00%     85.48% # Type of FU issued
system.switch_cpus1.iq.FU_type_0::SimdCvt            0      0.00%     85.48% # Type of FU issued
system.switch_cpus1.iq.FU_type_0::SimdMisc            0      0.00%     85.48% # Type of FU issued
system.switch_cpus1.iq.FU_type_0::SimdMult            0      0.00%     85.48% # Type of FU issued
system.switch_cpus1.iq.FU_type_0::SimdMultAcc            0      0.00%     85.48% # Type of FU issued
system.switch_cpus1.iq.FU_type_0::SimdShift            0      0.00%     85.48% # Type of FU issued
system.switch_cpus1.iq.FU_type_0::SimdShiftAcc            0      0.00%     85.48% # Type of FU issued
system.switch_cpus1.iq.FU_type_0::SimdSqrt            0      0.00%     85.48% # Type of FU issued
system.switch_cpus1.iq.FU_type_0::SimdFloatAdd            0      0.00%     85.48% # Type of FU issued
system.switch_cpus1.iq.FU_type_0::SimdFloatAlu            0      0.00%     85.48% # Type of FU issued
system.switch_cpus1.iq.FU_type_0::SimdFloatCmp            0      0.00%     85.48% # Type of FU issued
system.switch_cpus1.iq.FU_type_0::SimdFloatCvt            0      0.00%     85.48% # Type of FU issued
system.switch_cpus1.iq.FU_type_0::SimdFloatDiv            0      0.00%     85.48% # Type of FU issued
system.switch_cpus1.iq.FU_type_0::SimdFloatMisc        16016      0.01%     85.49% # Type of FU issued
system.switch_cpus1.iq.FU_type_0::SimdFloatMult            0      0.00%     85.49% # Type of FU issued
system.switch_cpus1.iq.FU_type_0::SimdFloatMultAcc            0      0.00%     85.49% # Type of FU issued
system.switch_cpus1.iq.FU_type_0::SimdFloatSqrt            0      0.00%     85.49% # Type of FU issued
system.switch_cpus1.iq.FU_type_0::MemRead     11942617      9.12%     94.61% # Type of FU issued
system.switch_cpus1.iq.FU_type_0::MemWrite      7056964      5.39%    100.00% # Type of FU issued
system.switch_cpus1.iq.FU_type_0::IprAccess            0      0.00%    100.00% # Type of FU issued
system.switch_cpus1.iq.FU_type_0::InstPrefetch            0      0.00%    100.00% # Type of FU issued
system.switch_cpus1.iq.FU_type_0::total     130975616                       # Type of FU issued
system.switch_cpus1.iq.rate                  0.931268                       # Inst issue rate
system.switch_cpus1.iq.fu_busy_cnt             276603                       # FU busy when requested
system.switch_cpus1.iq.fu_busy_rate          0.002112                       # FU busy rate (busy events/executed inst)
system.switch_cpus1.iq.int_inst_queue_reads    400681923                       # Number of integer instruction queue reads
system.switch_cpus1.iq.int_inst_queue_writes    160241428                       # Number of integer instruction queue writes
system.switch_cpus1.iq.int_inst_queue_wakeup_accesses    128481264                       # Number of integer instruction queue wakeup accesses
system.switch_cpus1.iq.fp_inst_queue_reads            0                       # Number of floating instruction queue reads
system.switch_cpus1.iq.fp_inst_queue_writes            0                       # Number of floating instruction queue writes
system.switch_cpus1.iq.fp_inst_queue_wakeup_accesses            0                       # Number of floating instruction queue wakeup accesses
system.switch_cpus1.iq.int_alu_accesses     131252219                       # Number of integer alu accesses
system.switch_cpus1.iq.fp_alu_accesses              0                       # Number of floating point alu accesses
system.switch_cpus1.iew.lsq.thread0.forwLoads       322623                       # Number of loads that had data forwarded from stores
system.switch_cpus1.iew.lsq.thread0.invAddrLoads            0                       # Number of loads ignored due to an invalid address
system.switch_cpus1.iew.lsq.thread0.squashedLoads      2853701                       # Number of loads squashed
system.switch_cpus1.iew.lsq.thread0.ignoredResponses          116                       # Number of memory responses ignored because the instruction is squashed
system.switch_cpus1.iew.lsq.thread0.memOrderViolation          324                       # Number of memory ordering violations
system.switch_cpus1.iew.lsq.thread0.squashedStores       172134                       # Number of stores squashed
system.switch_cpus1.iew.lsq.thread0.invAddrSwpfs            0                       # Number of software prefetches ignored due to an invalid address
system.switch_cpus1.iew.lsq.thread0.blockedLoads            0                       # Number of blocked loads due to partial load-store forwarding
system.switch_cpus1.iew.lsq.thread0.rescheduledLoads            0                       # Number of loads that were rescheduled
system.switch_cpus1.iew.lsq.thread0.cacheBlocked           36                       # Number of times an access to memory failed due to the cache being blocked
system.switch_cpus1.iew.iewIdleCycles               0                       # Number of cycles IEW is idle
system.switch_cpus1.iew.iewSquashCycles       3796537                       # Number of cycles IEW is squashing
system.switch_cpus1.iew.iewBlockCycles         786780                       # Number of cycles IEW is blocking
system.switch_cpus1.iew.iewUnblockCycles       107129                       # Number of cycles IEW is unblocking
system.switch_cpus1.iew.iewDispatchedInsts    140039183                       # Number of instructions dispatched to IQ
system.switch_cpus1.iew.iewDispSquashedInsts      1341579                       # Number of squashed instructions skipped by dispatch
system.switch_cpus1.iew.iewDispLoadInsts     13680513                       # Number of dispatched load instructions
system.switch_cpus1.iew.iewDispStoreInsts      7112057                       # Number of dispatched store instructions
system.switch_cpus1.iew.iewDispNonSpecInsts        21920                       # Number of dispatched non-speculative instructions
system.switch_cpus1.iew.iewIQFullEvents         81813                       # Number of times the IQ has become full, causing a stall
system.switch_cpus1.iew.iewLSQFullEvents            0                       # Number of times the LSQ has become full, causing a stall
system.switch_cpus1.iew.memOrderViolationEvents          324                       # Number of memory order violations
system.switch_cpus1.iew.predictedTakenIncorrect      1143953                       # Number of branches that were predicted taken incorrectly
system.switch_cpus1.iew.predictedNotTakenIncorrect      1102797                       # Number of branches that were predicted not taken incorrectly
system.switch_cpus1.iew.branchMispredicts      2246750                       # Number of branch mispredicts detected at execute
system.switch_cpus1.iew.iewExecutedInsts    129210723                       # Number of executed instructions
system.switch_cpus1.iew.iewExecLoadInsts     11780710                       # Number of load instructions executed
system.switch_cpus1.iew.iewExecSquashedInsts      1764893                       # Number of squashed instructions skipped in execute
system.switch_cpus1.iew.exec_swp                    0                       # number of swp insts executed
system.switch_cpus1.iew.exec_nop                    0                       # number of nop insts executed
system.switch_cpus1.iew.exec_refs            18836346                       # number of memory reference insts executed
system.switch_cpus1.iew.exec_branches        18106244                       # Number of branches executed
system.switch_cpus1.iew.exec_stores           7055636                       # Number of stores executed
system.switch_cpus1.iew.exec_rate            0.918719                       # Inst execution rate
system.switch_cpus1.iew.wb_sent             128481529                       # cumulative count of insts sent to commit
system.switch_cpus1.iew.wb_count            128481264                       # cumulative count of insts written-back
system.switch_cpus1.iew.wb_producers         75264172                       # num instructions producing a value
system.switch_cpus1.iew.wb_consumers        204451133                       # num instructions consuming a value
system.switch_cpus1.iew.wb_penalized                0                       # number of instrctions required to write to 'other' IQ
system.switch_cpus1.iew.wb_rate              0.913533                       # insts written-back per cycle
system.switch_cpus1.iew.wb_fanout            0.368128                       # average fanout of values written-back
system.switch_cpus1.iew.wb_penalized_rate            0                       # fraction of instructions written-back that wrote to 'other' IQ
system.switch_cpus1.commit.commitCommittedInsts     96083686                       # The number of committed instructions
system.switch_cpus1.commit.commitCommittedOps    118090757                       # The number of committed instructions
system.switch_cpus1.commit.commitSquashedInsts     21957284                       # The number of squashed insts skipped by commit
system.switch_cpus1.commit.commitNonSpecStalls        32032                       # The number of times commit has been forced to stall to communicate backwards
system.switch_cpus1.commit.branchMispredicts      1979784                       # The number of times a branch was mispredicted
system.switch_cpus1.commit.committed_per_cycle::samples    134631869                       # Number of insts commited each cycle
system.switch_cpus1.commit.committed_per_cycle::mean     0.877138                       # Number of insts commited each cycle
system.switch_cpus1.commit.committed_per_cycle::stdev     1.684046                       # Number of insts commited each cycle
system.switch_cpus1.commit.committed_per_cycle::underflows            0      0.00%      0.00% # Number of insts commited each cycle
system.switch_cpus1.commit.committed_per_cycle::0     86766137     64.45%     64.45% # Number of insts commited each cycle
system.switch_cpus1.commit.committed_per_cycle::1     23012939     17.09%     81.54% # Number of insts commited each cycle
system.switch_cpus1.commit.committed_per_cycle::2      9038863      6.71%     88.25% # Number of insts commited each cycle
system.switch_cpus1.commit.committed_per_cycle::3      4653351      3.46%     91.71% # Number of insts commited each cycle
system.switch_cpus1.commit.committed_per_cycle::4      4055705      3.01%     94.72% # Number of insts commited each cycle
system.switch_cpus1.commit.committed_per_cycle::5      1948995      1.45%     96.17% # Number of insts commited each cycle
system.switch_cpus1.commit.committed_per_cycle::6      1690118      1.26%     97.43% # Number of insts commited each cycle
system.switch_cpus1.commit.committed_per_cycle::7       794552      0.59%     98.02% # Number of insts commited each cycle
system.switch_cpus1.commit.committed_per_cycle::8      2671209      1.98%    100.00% # Number of insts commited each cycle
system.switch_cpus1.commit.committed_per_cycle::overflows            0      0.00%    100.00% # Number of insts commited each cycle
system.switch_cpus1.commit.committed_per_cycle::min_value            0                       # Number of insts commited each cycle
system.switch_cpus1.commit.committed_per_cycle::max_value            8                       # Number of insts commited each cycle
system.switch_cpus1.commit.committed_per_cycle::total    134631869                       # Number of insts commited each cycle
system.switch_cpus1.commit.committedInsts     96083686                       # Number of instructions committed
system.switch_cpus1.commit.committedOps     118090757                       # Number of ops (including micro ops) committed
system.switch_cpus1.commit.swp_count                0                       # Number of s/w prefetches committed
system.switch_cpus1.commit.refs              17766732                       # Number of memory references committed
system.switch_cpus1.commit.loads             10826809                       # Number of loads committed
[...]
system.cpu2.icache.ReadReq_misses::switch_cpus2.inst           14                       # number of ReadReq misses
system.cpu2.icache.ReadReq_misses::total           14                       # number of ReadReq misses
system.cpu2.icache.demand_misses::switch_cpus2.inst           14                       # number of demand (read+write) misses
system.cpu2.icache.demand_misses::total            14                       # number of demand (read+write) misses
system.cpu2.icache.overall_misses::switch_cpus2.inst           14                       # number of overall misses
system.cpu2.icache.overall_misses::total           14                       # number of overall misses
system.cpu2.icache.ReadReq_miss_latency::switch_cpus2.inst      2870507                       # number of ReadReq miss cycles
system.cpu2.icache.ReadReq_miss_latency::total      2870507                       # number of ReadReq miss cycles
system.cpu2.icache.demand_miss_latency::switch_cpus2.inst      2870507                       # number of demand (read+write) miss cycles
system.cpu2.icache.demand_miss_latency::total      2870507                       # number of demand (read+write) miss cycles
system.cpu2.icache.overall_miss_latency::switch_cpus2.inst      2870507                       # number of overall miss cycles
system.cpu2.icache.overall_miss_latency::total      2870507                       # number of overall miss cycles
system.cpu2.icache.ReadReq_accesses::switch_cpus2.inst     12549746                       # number of ReadReq accesses(hits+misses)
system.cpu2.icache.ReadReq_accesses::total     12549746                       # number of ReadReq accesses(hits+misses)
system.cpu2.icache.demand_accesses::switch_cpus2.inst     12549746                       # number of demand (read+write) accesses
system.cpu2.icache.demand_accesses::total     12549746                       # number of demand (read+write) accesses
system.cpu2.icache.overall_accesses::switch_cpus2.inst     12549746                       # number of overall (read+write) accesses
system.cpu2.icache.overall_accesses::total     12549746                       # number of overall (read+write) accesses
system.cpu2.icache.ReadReq_miss_rate::switch_cpus2.inst     0.000001                       # miss rate for ReadReq accesses
system.cpu2.icache.ReadReq_miss_rate::total     0.000001                       # miss rate for ReadReq accesses
system.cpu2.icache.demand_miss_rate::switch_cpus2.inst     0.000001                       # miss rate for demand accesses
system.cpu2.icache.demand_miss_rate::total     0.000001                       # miss rate for demand accesses
system.cpu2.icache.overall_miss_rate::switch_cpus2.inst     0.000001                       # miss rate for overall accesses
system.cpu2.icache.overall_miss_rate::total     0.000001                       # miss rate for overall accesses
system.cpu2.icache.ReadReq_avg_miss_latency::switch_cpus2.inst 205036.214286                       # average ReadReq miss latency
system.cpu2.icache.ReadReq_avg_miss_latency::total 205036.214286                       # average ReadReq miss latency
system.cpu2.icache.demand_avg_miss_latency::switch_cpus2.inst 205036.214286                       # average overall miss latency
system.cpu2.icache.demand_avg_miss_latency::total 205036.214286                       # average overall miss latency
system.cpu2.icache.overall_avg_miss_latency::switch_cpus2.inst 205036.214286                       # average overall miss latency
system.cpu2.icache.overall_avg_miss_latency::total 205036.214286                       # average overall miss latency
system.cpu2.icache.blocked_cycles::no_mshrs            0                       # number of cycles access was blocked
system.cpu2.icache.blocked_cycles::no_targets            0                       # number of cycles access was blocked
system.cpu2.icache.blocked::no_mshrs                0                       # number of cycles access was blocked
system.cpu2.icache.blocked::no_targets              0                       # number of cycles access was blocked
system.cpu2.icache.avg_blocked_cycles::no_mshrs          nan                       # average number of cycles each access was blocked
system.cpu2.icache.avg_blocked_cycles::no_targets          nan                       # average number of cycles each access was blocked
system.cpu2.icache.fast_writes                      0                       # number of fast writes performed
system.cpu2.icache.cache_copies                     0                       # number of cache copies performed
system.cpu2.icache.ReadReq_mshr_misses::switch_cpus2.inst           14                       # number of ReadReq MSHR misses
system.cpu2.icache.ReadReq_mshr_misses::total           14                       # number of ReadReq MSHR misses
system.cpu2.icache.demand_mshr_misses::switch_cpus2.inst           14                       # number of demand (read+write) MSHR misses
system.cpu2.icache.demand_mshr_misses::total           14                       # number of demand (read+write) MSHR misses
system.cpu2.icache.overall_mshr_misses::switch_cpus2.inst           14                       # number of overall MSHR misses
system.cpu2.icache.overall_mshr_misses::total           14                       # number of overall MSHR misses
system.cpu2.icache.ReadReq_mshr_miss_latency::switch_cpus2.inst      2723907                       # number of ReadReq MSHR miss cycles
system.cpu2.icache.ReadReq_mshr_miss_latency::total      2723907                       # number of ReadReq MSHR miss cycles
system.cpu2.icache.demand_mshr_miss_latency::switch_cpus2.inst      2723907                       # number of demand (read+write) MSHR miss cycles
system.cpu2.icache.demand_mshr_miss_latency::total      2723907                       # number of demand (read+write) MSHR miss cycles
system.cpu2.icache.overall_mshr_miss_latency::switch_cpus2.inst      2723907                       # number of overall MSHR miss cycles
system.cpu2.icache.overall_mshr_miss_latency::total      2723907                       # number of overall MSHR miss cycles
system.cpu2.icache.ReadReq_mshr_miss_rate::switch_cpus2.inst     0.000001                       # mshr miss rate for ReadReq accesses
system.cpu2.icache.ReadReq_mshr_miss_rate::total     0.000001                       # mshr miss rate for ReadReq accesses
system.cpu2.icache.demand_mshr_miss_rate::switch_cpus2.inst     0.000001                       # mshr miss rate for demand accesses
system.cpu2.icache.demand_mshr_miss_rate::total     0.000001                       # mshr miss rate for demand accesses
system.cpu2.icache.overall_mshr_miss_rate::switch_cpus2.inst     0.000001                       # mshr miss rate for overall accesses
system.cpu2.icache.overall_mshr_miss_rate::total     0.000001                       # mshr miss rate for overall accesses
system.cpu2.icache.ReadReq_avg_mshr_miss_latency::switch_cpus2.inst 194564.785714                       # average ReadReq mshr miss latency
system.cpu2.icache.ReadReq_avg_mshr_miss_latency::total 194564.785714                       # average ReadReq mshr miss latency
system.cpu2.icache.demand_avg_mshr_miss_latency::switch_cpus2.inst 194564.785714                       # average overall mshr miss latency
system.cpu2.icache.demand_avg_mshr_miss_latency::total 194564.785714                       # average overall mshr miss latency
system.cpu2.icache.overall_avg_mshr_miss_latency::switch_cpus2.inst 194564.785714                       # average overall mshr miss latency
system.cpu2.icache.overall_avg_mshr_miss_latency::total 194564.785714                       # average overall mshr miss latency
system.cpu2.icache.no_allocate_misses               0                       # Number of misses that were no-allocate
system.cpu2.dcache.replacements                 46265                       # number of replacements
system.cpu2.dcache.tagsinuse                      256                       # Cycle average of tags in use
system.cpu2.dcache.total_refs               225790489                       # Total number of references to valid blocks.
system.cpu2.dcache.sampled_refs                 46521                       # Sample count of references to valid blocks.
system.cpu2.dcache.avg_refs               4853.517530                       # Average number of references to valid blocks.
system.cpu2.dcache.warmup_cycle                     0                       # Cycle when the warmup percentage was hit.
system.cpu2.dcache.occ_blocks::switch_cpus2.data   215.392689                       # Average occupied blocks per requestor
system.cpu2.dcache.occ_blocks::cpu2.data    40.607311                       # Average occupied blocks per requestor
system.cpu2.dcache.occ_percent::switch_cpus2.data     0.841378                       # Average percentage of cache occupancy
system.cpu2.dcache.occ_percent::cpu2.data     0.158622                       # Average percentage of cache occupancy
system.cpu2.dcache.occ_percent::total               1                       # Average percentage of cache occupancy
system.cpu2.dcache.ReadReq_hits::switch_cpus2.data     18055309                       # number of ReadReq hits
system.cpu2.dcache.ReadReq_hits::total       18055309                       # number of ReadReq hits
system.cpu2.dcache.WriteReq_hits::switch_cpus2.data      4050715                       # number of WriteReq hits
system.cpu2.dcache.WriteReq_hits::total       4050715                       # number of WriteReq hits
system.cpu2.dcache.LoadLockedReq_hits::switch_cpus2.data         9277                       # number of LoadLockedReq hits
system.cpu2.dcache.LoadLockedReq_hits::total         9277                       # number of LoadLockedReq hits
system.cpu2.dcache.StoreCondReq_hits::switch_cpus2.data         9266                       # number of StoreCondReq hits
system.cpu2.dcache.StoreCondReq_hits::total         9266                       # number of StoreCondReq hits
system.cpu2.dcache.demand_hits::switch_cpus2.data     22106024                       # number of demand (read+write) hits
system.cpu2.dcache.demand_hits::total        22106024                       # number of demand (read+write) hits
system.cpu2.dcache.overall_hits::switch_cpus2.data     22106024                       # number of overall hits
system.cpu2.dcache.overall_hits::total       22106024                       # number of overall hits
system.cpu2.dcache.ReadReq_misses::switch_cpus2.data       169260                       # number of ReadReq misses
system.cpu2.dcache.ReadReq_misses::total       169260                       # number of ReadReq misses
system.cpu2.dcache.demand_misses::switch_cpus2.data       169260                       # number of demand (read+write) misses
system.cpu2.dcache.demand_misses::total        169260                       # number of demand (read+write) misses
system.cpu2.dcache.overall_misses::switch_cpus2.data       169260                       # number of overall misses
system.cpu2.dcache.overall_misses::total       169260                       # number of overall misses
system.cpu2.dcache.ReadReq_miss_latency::switch_cpus2.data  19497337192                       # number of ReadReq miss cycles
system.cpu2.dcache.ReadReq_miss_latency::total  19497337192                       # number of ReadReq miss cycles
system.cpu2.dcache.demand_miss_latency::switch_cpus2.data  19497337192                       # number of demand (read+write) miss cycles
system.cpu2.dcache.demand_miss_latency::total  19497337192                       # number of demand (read+write) miss cycles
system.cpu2.dcache.overall_miss_latency::switch_cpus2.data  19497337192                       # number of overall miss cycles
system.cpu2.dcache.overall_miss_latency::total  19497337192                       # number of overall miss cycles
system.cpu2.dcache.ReadReq_accesses::switch_cpus2.data     18224569                       # number of ReadReq accesses(hits+misses)
system.cpu2.dcache.ReadReq_accesses::total     18224569                       # number of ReadReq accesses(hits+misses)
system.cpu2.dcache.WriteReq_accesses::switch_cpus2.data      4050715                       # number of WriteReq accesses(hits+misses)
system.cpu2.dcache.WriteReq_accesses::total      4050715                       # number of WriteReq accesses(hits+misses)
system.cpu2.dcache.LoadLockedReq_accesses::switch_cpus2.data         9277                       # number of LoadLockedReq accesses(hits+misses)
system.cpu2.dcache.LoadLockedReq_accesses::total         9277                       # number of LoadLockedReq accesses(hits+misses)
system.cpu2.dcache.StoreCondReq_accesses::switch_cpus2.data         9266                       # number of StoreCondReq accesses(hits+misses)
system.cpu2.dcache.StoreCondReq_accesses::total         9266                       # number of StoreCondReq accesses(hits+misses)
system.cpu2.dcache.demand_accesses::switch_cpus2.data     22275284                       # number of demand (read+write) accesses
system.cpu2.dcache.demand_accesses::total     22275284                       # number of demand (read+write) accesses
system.cpu2.dcache.overall_accesses::switch_cpus2.data     22275284                       # number of overall (read+write) accesses
system.cpu2.dcache.overall_accesses::total     22275284                       # number of overall (read+write) accesses
system.cpu2.dcache.ReadReq_miss_rate::switch_cpus2.data     0.009287                       # miss rate for ReadReq accesses
system.cpu2.dcache.ReadReq_miss_rate::total     0.009287                       # miss rate for ReadReq accesses
system.cpu2.dcache.demand_miss_rate::switch_cpus2.data     0.007599                       # miss rate for demand accesses
system.cpu2.dcache.demand_miss_rate::total     0.007599                       # miss rate for demand accesses
system.cpu2.dcache.overall_miss_rate::switch_cpus2.data     0.007599                       # miss rate for overall accesses
system.cpu2.dcache.overall_miss_rate::total     0.007599                       # miss rate for overall accesses
system.cpu2.dcache.ReadReq_avg_miss_latency::switch_cpus2.data 115191.641215                       # average ReadReq miss latency
system.cpu2.dcache.ReadReq_avg_miss_latency::total 115191.641215                       # average ReadReq miss latency
system.cpu2.dcache.demand_avg_miss_latency::switch_cpus2.data 115191.641215                       # average overall miss latency
system.cpu2.dcache.demand_avg_miss_latency::total 115191.641215                       # average overall miss latency
system.cpu2.dcache.overall_avg_miss_latency::switch_cpus2.data 115191.641215                       # average overall miss latency
system.cpu2.dcache.overall_avg_miss_latency::total 115191.641215                       # average overall miss latency
system.cpu2.dcache.blocked_cycles::no_mshrs            0                       # number of cycles access was blocked
system.cpu2.dcache.blocked_cycles::no_targets            0                       # number of cycles access was blocked
system.cpu2.dcache.blocked::no_mshrs                0                       # number of cycles access was blocked
system.cpu2.dcache.blocked::no_targets              0                       # number of cycles access was blocked
system.cpu2.dcache.avg_blocked_cycles::no_mshrs          nan                       # average number of cycles each access was blocked
system.cpu2.dcache.avg_blocked_cycles::no_targets          nan                       # average number of cycles each access was blocked
system.cpu2.dcache.fast_writes                      0                       # number of fast writes performed
system.cpu2.dcache.cache_copies                     0                       # number of cache copies performed
system.cpu2.dcache.writebacks::writebacks        10481                       # number of writebacks
system.cpu2.dcache.writebacks::total            10481                       # number of writebacks
system.cpu2.dcache.ReadReq_mshr_hits::switch_cpus2.data       122995                       # number of ReadReq MSHR hits
system.cpu2.dcache.ReadReq_mshr_hits::total       122995                       # number of ReadReq MSHR hits
system.cpu2.dcache.demand_mshr_hits::switch_cpus2.data       122995                       # number of demand (read+write) MSHR hits
system.cpu2.dcache.demand_mshr_hits::total       122995                       # number of demand (read+write) MSHR hits
system.cpu2.dcache.overall_mshr_hits::switch_cpus2.data       122995                       # number of overall MSHR hits
system.cpu2.dcache.overall_mshr_hits::total       122995                       # number of overall MSHR hits
system.cpu2.dcache.ReadReq_mshr_misses::switch_cpus2.data        46265                       # number of ReadReq MSHR misses
system.cpu2.dcache.ReadReq_mshr_misses::total        46265                       # number of ReadReq MSHR misses
system.cpu2.dcache.demand_mshr_misses::switch_cpus2.data        46265                       # number of demand (read+write) MSHR misses
system.cpu2.dcache.demand_mshr_misses::total        46265                       # number of demand (read+write) MSHR misses
system.cpu2.dcache.overall_mshr_misses::switch_cpus2.data        46265                       # number of overall MSHR misses
system.cpu2.dcache.overall_mshr_misses::total        46265                       # number of overall MSHR misses
system.cpu2.dcache.ReadReq_mshr_miss_latency::switch_cpus2.data   4658087238                       # number of ReadReq MSHR miss cycles
system.cpu2.dcache.ReadReq_mshr_miss_latency::total   4658087238                       # number of ReadReq MSHR miss cycles
system.cpu2.dcache.demand_mshr_miss_latency::switch_cpus2.data   4658087238                       # number of demand (read+write) MSHR miss cycles
system.cpu2.dcache.demand_mshr_miss_latency::total   4658087238                       # number of demand (read+write) MSHR miss cycles
system.cpu2.dcache.overall_mshr_miss_latency::switch_cpus2.data   4658087238                       # number of overall MSHR miss cycles
system.cpu2.dcache.overall_mshr_miss_latency::total   4658087238                       # number of overall MSHR miss cycles
system.cpu2.dcache.ReadReq_mshr_miss_rate::switch_cpus2.data     0.002539                       # mshr miss rate for ReadReq accesses
system.cpu2.dcache.ReadReq_mshr_miss_rate::total     0.002539                       # mshr miss rate for ReadReq accesses
system.cpu2.dcache.demand_mshr_miss_rate::switch_cpus2.data     0.002077                       # mshr miss rate for demand accesses
system.cpu2.dcache.demand_mshr_miss_rate::total     0.002077                       # mshr miss rate for demand accesses
system.cpu2.dcache.overall_mshr_miss_rate::switch_cpus2.data     0.002077                       # mshr miss rate for overall accesses
system.cpu2.dcache.overall_mshr_miss_rate::total     0.002077                       # mshr miss rate for overall accesses
system.cpu2.dcache.ReadReq_avg_mshr_miss_latency::switch_cpus2.data 100682.745877                       # average ReadReq mshr miss latency
system.cpu2.dcache.ReadReq_avg_mshr_miss_latency::total 100682.745877                       # average ReadReq mshr miss latency
system.cpu2.dcache.demand_avg_mshr_miss_latency::switch_cpus2.data 100682.745877                       # average overall mshr miss latency
system.cpu2.dcache.demand_avg_mshr_miss_latency::total 100682.745877                       # average overall mshr miss latency
system.cpu2.dcache.overall_avg_mshr_miss_latency::switch_cpus2.data 100682.745877                       # average overall mshr miss latency
system.cpu2.dcache.overall_avg_mshr_miss_latency::total 100682.745877                       # average overall mshr miss latency
system.cpu2.dcache.no_allocate_misses               0                       # Number of misses that were no-allocate

---------- End Simulation Statistics   ----------
