
---------- Begin Simulation Statistics ----------
sim_seconds                                  0.001112                       # Number of seconds simulated
sim_ticks                                  1111918824                       # Number of ticks simulated
final_tick                               400314060252                       # Number of ticks from beginning of simulation (restored from checkpoints and never reset)
sim_freq                                 1000000000000                       # Frequency of simulated ticks
host_inst_rate                                 142313                       # Simulator instruction rate (inst/s)
host_op_rate                                   184467                       # Simulator op (including micro ops) rate (op/s)
host_tick_rate                                  26749                       # Simulator tick rate (ticks/s)
host_mem_usage                               67376636                       # Number of bytes of host memory used
host_seconds                                 41567.94                       # Real time elapsed on the host
sim_insts                                  5915673506                       # Number of instructions simulated
sim_ops                                    7667927929                       # Number of ops (including micro ops) simulated
system.physmem.bytes_read::switch_cpus0.inst         3072                       # Number of bytes read from this memory
system.physmem.bytes_read::switch_cpus0.data        16128                       # Number of bytes read from this memory
system.physmem.bytes_read::switch_cpus1.inst         3328                       # Number of bytes read from this memory
system.physmem.bytes_read::switch_cpus1.data        20608                       # Number of bytes read from this memory
system.physmem.bytes_read::switch_cpus2.inst         1664                       # Number of bytes read from this memory
system.physmem.bytes_read::switch_cpus2.data        62848                       # Number of bytes read from this memory
system.physmem.bytes_read::switch_cpus3.inst         1408                       # Number of bytes read from this memory
system.physmem.bytes_read::switch_cpus3.data         9984                       # Number of bytes read from this memory
system.physmem.bytes_read::switch_cpus4.inst         1408                       # Number of bytes read from this memory
system.physmem.bytes_read::switch_cpus4.data         9984                       # Number of bytes read from this memory
system.physmem.bytes_read::switch_cpus5.inst         3456                       # Number of bytes read from this memory
system.physmem.bytes_read::switch_cpus5.data        10752                       # Number of bytes read from this memory
system.physmem.bytes_read::switch_cpus6.inst         1664                       # Number of bytes read from this memory
system.physmem.bytes_read::switch_cpus6.data        63872                       # Number of bytes read from this memory
system.physmem.bytes_read::switch_cpus7.inst         3072                       # Number of bytes read from this memory
system.physmem.bytes_read::switch_cpus7.data        16128                       # Number of bytes read from this memory
system.physmem.bytes_read::total               229376                       # Number of bytes read from this memory
system.physmem.bytes_inst_read::switch_cpus0.inst         3072                       # Number of instructions bytes read from this memory
system.physmem.bytes_inst_read::switch_cpus1.inst         3328                       # Number of instructions bytes read from this memory
system.physmem.bytes_inst_read::switch_cpus2.inst         1664                       # Number of instructions bytes read from this memory
system.physmem.bytes_inst_read::switch_cpus3.inst         1408                       # Number of instructions bytes read from this memory
system.physmem.bytes_inst_read::switch_cpus4.inst         1408                       # Number of instructions bytes read from this memory
system.physmem.bytes_inst_read::switch_cpus5.inst         3456                       # Number of instructions bytes read from this memory
system.physmem.bytes_inst_read::switch_cpus6.inst         1664                       # Number of instructions bytes read from this memory
system.physmem.bytes_inst_read::switch_cpus7.inst         3072                       # Number of instructions bytes read from this memory
system.physmem.bytes_inst_read::total           19072                       # Number of instructions bytes read from this memory
system.physmem.bytes_written::writebacks       126464                       # Number of bytes written to this memory
system.physmem.bytes_written::total            126464                       # Number of bytes written to this memory
system.physmem.num_reads::switch_cpus0.inst           24                       # Number of read requests responded to by this memory
system.physmem.num_reads::switch_cpus0.data          126                       # Number of read requests responded to by this memory
system.physmem.num_reads::switch_cpus1.inst           26                       # Number of read requests responded to by this memory
system.physmem.num_reads::switch_cpus1.data          161                       # Number of read requests responded to by this memory
system.physmem.num_reads::switch_cpus2.inst           13                       # Number of read requests responded to by this memory
system.physmem.num_reads::switch_cpus2.data          491                       # Number of read requests responded to by this memory
system.physmem.num_reads::switch_cpus3.inst           11                       # Number of read requests responded to by this memory
system.physmem.num_reads::switch_cpus3.data           78                       # Number of read requests responded to by this memory
system.physmem.num_reads::switch_cpus4.inst           11                       # Number of read requests responded to by this memory
system.physmem.num_reads::switch_cpus4.data           78                       # Number of read requests responded to by this memory
system.physmem.num_reads::switch_cpus5.inst           27                       # Number of read requests responded to by this memory
system.physmem.num_reads::switch_cpus5.data           84                       # Number of read requests responded to by this memory
system.physmem.num_reads::switch_cpus6.inst           13                       # Number of read requests responded to by this memory
system.physmem.num_reads::switch_cpus6.data          499                       # Number of read requests responded to by this memory
system.physmem.num_reads::switch_cpus7.inst           24                       # Number of read requests responded to by this memory
system.physmem.num_reads::switch_cpus7.data          126                       # Number of read requests responded to by this memory
system.physmem.num_reads::total                  1792                       # Number of read requests responded to by this memory
system.physmem.num_writes::writebacks             988                       # Number of write requests responded to by this memory
system.physmem.num_writes::functional               0                       # Number of write requests responded to by this memory
system.physmem.num_writes::interrupt                0                       # Number of write requests responded to by this memory
system.physmem.num_writes::switch_cpus0.dtb.walker            0                       # Number of write requests responded to by this memory
system.physmem.num_writes::switch_cpus0.itb.walker            0                       # Number of write requests responded to by this memory
system.physmem.num_writes::switch_cpus0.inst            0                       # Number of write requests responded to by this memory
system.physmem.num_writes::switch_cpus0.data            0                       # Number of write requests responded to by this memory
system.physmem.num_writes::switch_cpus1.dtb.walker            0                       # Number of write requests responded to by this memory
system.physmem.num_writes::switch_cpus1.itb.walker            0                       # Number of write requests responded to by this memory
system.physmem.num_writes::switch_cpus1.inst            0                       # Number of write requests responded to by this memory
system.physmem.num_writes::switch_cpus1.data            0                       # Number of write requests responded to by this memory
system.physmem.num_writes::switch_cpus2.dtb.walker            0                       # Number of write requests responded to by this memory
system.physmem.num_writes::switch_cpus2.itb.walker            0                       # Number of write requests responded to by this memory
system.physmem.num_writes::switch_cpus2.inst            0                       # Number of write requests responded to by this memory
system.physmem.num_writes::switch_cpus2.data            0                       # Number of write requests responded to by this memory
system.physmem.num_writes::switch_cpus3.dtb.walker            0                       # Number of write requests responded to by this memory
system.physmem.num_writes::switch_cpus3.itb.walker            0                       # Number of write requests responded to by this memory
system.physmem.num_writes::switch_cpus3.inst            0                       # Number of write requests responded to by this memory
system.physmem.num_writes::switch_cpus3.data            0                       # Number of write requests responded to by this memory
system.physmem.num_writes::switch_cpus4.dtb.walker            0                       # Number of write requests responded to by this memory
system.physmem.num_writes::switch_cpus4.itb.walker            0                       # Number of write requests responded to by this memory
system.physmem.num_writes::switch_cpus4.inst            0                       # Number of write requests responded to by this memory
system.physmem.num_writes::switch_cpus4.data            0                       # Number of write requests responded to by this memory
system.physmem.num_writes::switch_cpus5.dtb.walker            0                       # Number of write requests responded to by this memory
system.physmem.num_writes::switch_cpus5.itb.walker            0                       # Number of write requests responded to by this memory
system.physmem.num_writes::switch_cpus5.inst            0                       # Number of write requests responded to by this memory
system.physmem.num_writes::switch_cpus5.data            0                       # Number of write requests responded to by this memory
system.physmem.num_writes::switch_cpus6.dtb.walker            0                       # Number of write requests responded to by this memory
system.physmem.num_writes::switch_cpus6.itb.walker            0                       # Number of write requests responded to by this memory
system.physmem.num_writes::switch_cpus6.inst            0                       # Number of write requests responded to by this memory
system.physmem.num_writes::switch_cpus6.data            0                       # Number of write requests responded to by this memory
system.physmem.num_writes::switch_cpus7.dtb.walker            0                       # Number of write requests responded to by this memory
system.physmem.num_writes::switch_cpus7.itb.walker            0                       # Number of write requests responded to by this memory
system.physmem.num_writes::switch_cpus7.inst            0                       # Number of write requests responded to by this memory
system.physmem.num_writes::switch_cpus7.data            0                       # Number of write requests responded to by this memory
system.physmem.num_writes::cpu0.dtb.walker            0                       # Number of write requests responded to by this memory
system.physmem.num_writes::cpu0.itb.walker            0                       # Number of write requests responded to by this memory
system.physmem.num_writes::cpu0.inst                0                       # Number of write requests responded to by this memory
system.physmem.num_writes::cpu0.data                0                       # Number of write requests responded to by this memory
system.physmem.num_writes::cpu1.dtb.walker            0                       # Number of write requests responded to by this memory
system.physmem.num_writes::cpu1.itb.walker            0                       # Number of write requests responded to by this memory
system.physmem.num_writes::cpu1.inst                0                       # Number of write requests responded to by this memory
system.physmem.num_writes::cpu1.data                0                       # Number of write requests responded to by this memory
system.physmem.num_writes::cpu2.dtb.walker            0                       # Number of write requests responded to by this memory
system.physmem.num_writes::cpu2.itb.walker            0                       # Number of write requests responded to by this memory
system.physmem.num_writes::cpu2.inst                0                       # Number of write requests responded to by this memory
system.physmem.num_writes::cpu2.data                0                       # Number of write requests responded to by this memory
system.physmem.num_writes::cpu3.dtb.walker            0                       # Number of write requests responded to by this memory
system.physmem.num_writes::cpu3.itb.walker            0                       # Number of write requests responded to by this memory
system.physmem.num_writes::cpu3.inst                0                       # Number of write requests responded to by this memory
system.physmem.num_writes::cpu3.data                0                       # Number of write requests responded to by this memory
system.physmem.num_writes::cpu4.dtb.walker            0                       # Number of write requests responded to by this memory
system.physmem.num_writes::cpu4.itb.walker            0                       # Number of write requests responded to by this memory
system.physmem.num_writes::cpu4.inst                0                       # Number of write requests responded to by this memory
system.physmem.num_writes::cpu4.data                0                       # Number of write requests responded to by this memory
system.physmem.num_writes::cpu5.dtb.walker            0                       # Number of write requests responded to by this memory
system.physmem.num_writes::cpu5.itb.walker            0                       # Number of write requests responded to by this memory
system.physmem.num_writes::cpu5.inst                0                       # Number of write requests responded to by this memory
system.physmem.num_writes::cpu5.data                0                       # Number of write requests responded to by this memory
system.physmem.num_writes::cpu6.dtb.walker            0                       # Number of write requests responded to by this memory
system.physmem.num_writes::cpu6.itb.walker            0                       # Number of write requests responded to by this memory
system.physmem.num_writes::cpu6.inst                0                       # Number of write requests responded to by this memory
system.physmem.num_writes::cpu6.data                0                       # Number of write requests responded to by this memory
system.physmem.num_writes::cpu7.dtb.walker            0                       # Number of write requests responded to by this memory
system.physmem.num_writes::cpu7.itb.walker            0                       # Number of write requests responded to by this memory
system.physmem.num_writes::cpu7.inst                0                       # Number of write requests responded to by this memory
system.physmem.num_writes::cpu7.data                0                       # Number of write requests responded to by this memory
system.physmem.num_writes::total                  988                       # Number of write requests responded to by this memory
system.physmem.bw_read::switch_cpus0.inst      2762792                       # Total read bandwidth from this memory (bytes/s)
system.physmem.bw_read::switch_cpus0.data     14504656                       # Total read bandwidth from this memory (bytes/s)
system.physmem.bw_read::switch_cpus1.inst      2993024                       # Total read bandwidth from this memory (bytes/s)
system.physmem.bw_read::switch_cpus1.data     18533727                       # Total read bandwidth from this memory (bytes/s)
system.physmem.bw_read::switch_cpus2.inst      1496512                       # Total read bandwidth from this memory (bytes/s)
system.physmem.bw_read::switch_cpus2.data     56522112                       # Total read bandwidth from this memory (bytes/s)
system.physmem.bw_read::switch_cpus3.inst      1266279                       # Total read bandwidth from this memory (bytes/s)
system.physmem.bw_read::switch_cpus3.data      8979073                       # Total read bandwidth from this memory (bytes/s)
system.physmem.bw_read::switch_cpus4.inst      1266279                       # Total read bandwidth from this memory (bytes/s)
system.physmem.bw_read::switch_cpus4.data      8979073                       # Total read bandwidth from this memory (bytes/s)
system.physmem.bw_read::switch_cpus5.inst      3108141                       # Total read bandwidth from this memory (bytes/s)
system.physmem.bw_read::switch_cpus5.data      9669771                       # Total read bandwidth from this memory (bytes/s)
system.physmem.bw_read::switch_cpus6.inst      1496512                       # Total read bandwidth from this memory (bytes/s)
system.physmem.bw_read::switch_cpus6.data     57443042                       # Total read bandwidth from this memory (bytes/s)
system.physmem.bw_read::switch_cpus7.inst      2762792                       # Total read bandwidth from this memory (bytes/s)
system.physmem.bw_read::switch_cpus7.data     14504656                       # Total read bandwidth from this memory (bytes/s)
system.physmem.bw_read::total               206288440                       # Total read bandwidth from this memory (bytes/s)
system.physmem.bw_inst_read::switch_cpus0.inst      2762792                       # Instruction read bandwidth from this memory (bytes/s)
system.physmem.bw_inst_read::switch_cpus1.inst      2993024                       # Instruction read bandwidth from this memory (bytes/s)
system.physmem.bw_inst_read::switch_cpus2.inst      1496512                       # Instruction read bandwidth from this memory (bytes/s)
system.physmem.bw_inst_read::switch_cpus3.inst      1266279                       # Instruction read bandwidth from this memory (bytes/s)
system.physmem.bw_inst_read::switch_cpus4.inst      1266279                       # Instruction read bandwidth from this memory (bytes/s)
system.physmem.bw_inst_read::switch_cpus5.inst      3108141                       # Instruction read bandwidth from this memory (bytes/s)
system.physmem.bw_inst_read::switch_cpus6.inst      1496512                       # Instruction read bandwidth from this memory (bytes/s)
system.physmem.bw_inst_read::switch_cpus7.inst      2762792                       # Instruction read bandwidth from this memory (bytes/s)
system.physmem.bw_inst_read::total           17152331                       # Instruction read bandwidth from this memory (bytes/s)
system.physmem.bw_write::writebacks         113734921                       # Write bandwidth from this memory (bytes/s)
system.physmem.bw_write::total              113734921                       # Write bandwidth from this memory (bytes/s)
system.physmem.bw_total::writebacks         113734921                       # Total bandwidth to/from this memory (bytes/s)
system.physmem.bw_total::switch_cpus0.inst      2762792                       # Total bandwidth to/from this memory (bytes/s)
system.physmem.bw_total::switch_cpus0.data     14504656                       # Total bandwidth to/from this memory (bytes/s)
system.physmem.bw_total::switch_cpus1.inst      2993024                       # Total bandwidth to/from this memory (bytes/s)
system.physmem.bw_total::switch_cpus1.data     18533727                       # Total bandwidth to/from this memory (bytes/s)
system.physmem.bw_total::switch_cpus2.inst      1496512                       # Total bandwidth to/from this memory (bytes/s)
system.physmem.bw_total::switch_cpus2.data     56522112                       # Total bandwidth to/from this memory (bytes/s)
system.physmem.bw_total::switch_cpus3.inst      1266279                       # Total bandwidth to/from this memory (bytes/s)
system.physmem.bw_total::switch_cpus3.data      8979073                       # Total bandwidth to/from this memory (bytes/s)
system.physmem.bw_total::switch_cpus4.inst      1266279                       # Total bandwidth to/from this memory (bytes/s)
system.physmem.bw_total::switch_cpus4.data      8979073                       # Total bandwidth to/from this memory (bytes/s)
system.physmem.bw_total::switch_cpus5.inst      3108141                       # Total bandwidth to/from this memory (bytes/s)
system.physmem.bw_total::switch_cpus5.data      9669771                       # Total bandwidth to/from this memory (bytes/s)
system.physmem.bw_total::switch_cpus6.inst      1496512                       # Total bandwidth to/from this memory (bytes/s)
system.physmem.bw_total::switch_cpus6.data     57443042                       # Total bandwidth to/from this memory (bytes/s)
system.physmem.bw_total::switch_cpus7.inst      2762792                       # Total bandwidth to/from this memory (bytes/s)
system.physmem.bw_total::switch_cpus7.data     14504656                       # Total bandwidth to/from this memory (bytes/s)
system.physmem.bw_total::total              320023362                       # Total bandwidth to/from this memory (bytes/s)
system.switch_cpus0.dtb.inst_hits                   0                       # ITB inst hits
system.switch_cpus0.dtb.inst_misses                 0                       # ITB inst misses
system.switch_cpus0.dtb.read_hits                   0                       # DTB read hits
system.switch_cpus0.dtb.read_misses                 0                       # DTB read misses
system.switch_cpus0.dtb.write_hits                  0                       # DTB write hits
system.switch_cpus0.dtb.write_misses                0                       # DTB write misses
system.switch_cpus0.dtb.flush_tlb                   0                       # Number of times complete TLB was flushed
system.switch_cpus0.dtb.flush_tlb_mva               0                       # Number of times TLB was flushed by MVA
system.switch_cpus0.dtb.flush_tlb_mva_asid            0                       # Number of times TLB was flushed by MVA & ASID
system.switch_cpus0.dtb.flush_tlb_asid              0                       # Number of times TLB was flushed by ASID
system.switch_cpus0.dtb.flush_entries               0                       # Number of entries that have been flushed from TLB
system.switch_cpus0.dtb.align_faults                0                       # Number of TLB faults due to alignment restrictions
system.switch_cpus0.dtb.prefetch_faults             0                       # Number of TLB faults due to prefetch
system.switch_cpus0.dtb.domain_faults               0                       # Number of TLB faults due to domain restrictions
system.switch_cpus0.dtb.perms_faults                0                       # Number of TLB faults due to permissions restrictions
system.switch_cpus0.dtb.read_accesses               0                       # DTB read accesses
system.switch_cpus0.dtb.write_accesses              0                       # DTB write accesses
system.switch_cpus0.dtb.inst_accesses               0                       # ITB inst accesses
system.switch_cpus0.dtb.hits                        0                       # DTB hits
system.switch_cpus0.dtb.misses                      0                       # DTB misses
system.switch_cpus0.dtb.accesses                    0                       # DTB accesses
system.switch_cpus0.itb.inst_hits                   0                       # ITB inst hits
system.switch_cpus0.itb.inst_misses                 0                       # ITB inst misses
system.switch_cpus0.itb.read_hits                   0                       # DTB read hits
system.switch_cpus0.itb.read_misses                 0                       # DTB read misses
system.switch_cpus0.itb.write_hits                  0                       # DTB write hits
system.switch_cpus0.itb.write_misses                0                       # DTB write misses
system.switch_cpus0.itb.flush_tlb                   0                       # Number of times complete TLB was flushed
system.switch_cpus0.itb.flush_tlb_mva               0                       # Number of times TLB was flushed by MVA
system.switch_cpus0.itb.flush_tlb_mva_asid            0                       # Number of times TLB was flushed by MVA & ASID
system.switch_cpus0.itb.flush_tlb_asid              0                       # Number of times TLB was flushed by ASID
system.switch_cpus0.itb.flush_entries               0                       # Number of entries that have been flushed from TLB
system.switch_cpus0.itb.align_faults                0                       # Number of TLB faults due to alignment restrictions
system.switch_cpus0.itb.prefetch_faults             0                       # Number of TLB faults due to prefetch
system.switch_cpus0.itb.domain_faults               0                       # Number of TLB faults due to domain restrictions
system.switch_cpus0.itb.perms_faults                0                       # Number of TLB faults due to permissions restrictions
system.switch_cpus0.itb.read_accesses               0                       # DTB read accesses
system.switch_cpus0.itb.write_accesses              0                       # DTB write accesses
system.switch_cpus0.itb.inst_accesses               0                       # ITB inst accesses
system.switch_cpus0.itb.hits                        0                       # DTB hits
system.switch_cpus0.itb.misses                      0                       # DTB misses
system.switch_cpus0.itb.accesses                    0                       # DTB accesses
system.cpu0.workload.num_syscalls                   1                       # Number of system calls
system.switch_cpus0.numCycles                 2666473                       # number of cpu cycles simulated
system.switch_cpus0.numWorkItemsStarted             0                       # number of work items this cpu started
system.switch_cpus0.numWorkItemsCompleted            0                       # number of work items this cpu completed
system.switch_cpus0.BPredUnit.lookups          210177                       # Number of BP lookups
system.switch_cpus0.BPredUnit.condPredicted       172169                       # Number of conditional branches predicted
system.switch_cpus0.BPredUnit.condIncorrect        22260                       # Number of conditional branches incorrect
system.switch_cpus0.BPredUnit.BTBLookups        87066                       # Number of BTB lookups
system.switch_cpus0.BPredUnit.BTBHits           80006                       # Number of BTB hits
system.switch_cpus0.BPredUnit.BTBCorrect            0                       # Number of correct BTB predictions (this stat may not work properly.
system.switch_cpus0.BPredUnit.usedRAS           21303                       # Number of times the RAS was used to get a target.
system.switch_cpus0.BPredUnit.RASInCorrect          995                       # Number of incorrect RAS predictions.
system.switch_cpus0.fetch.icacheStallCycles      2008471                       # Number of cycles fetch is stalled on an Icache miss
system.switch_cpus0.fetch.Insts               1199698                       # Number of instructions fetch has processed
system.switch_cpus0.fetch.Branches             210177                       # Number of branches that fetch encountered
system.switch_cpus0.fetch.predictedBranches       101309                       # Number of branches that fetch has predicted taken
system.switch_cpus0.fetch.Cycles               262294                       # Number of cycles fetch has run and was not squashing or blocked
system.switch_cpus0.fetch.SquashCycles          64225                       # Number of cycles fetch has spent squashing
system.switch_cpus0.fetch.BlockedCycles        109683                       # Number of cycles fetch has spent blocked
system.switch_cpus0.fetch.CacheLines           125226                       # Number of cache lines fetched
system.switch_cpus0.fetch.IcacheSquashes        21986                       # Number of outstanding Icache misses that were squashed
system.switch_cpus0.fetch.rateDist::samples      2422028                       # Number of instructions fetched each cycle (Total)
system.switch_cpus0.fetch.rateDist::mean     0.606538                       # Number of instructions fetched each cycle (Total)
system.switch_cpus0.fetch.rateDist::stdev     1.957036                       # Number of instructions fetched each cycle (Total)
system.switch_cpus0.fetch.rateDist::underflows            0      0.00%      0.00% # Number of instructions fetched each cycle (Total)
system.switch_cpus0.fetch.rateDist::0         2159734     89.17%     89.17% # Number of instructions fetched each cycle (Total)
system.switch_cpus0.fetch.rateDist::1           27844      1.15%     90.32% # Number of instructions fetched each cycle (Total)
system.switch_cpus0.fetch.rateDist::2           32245      1.33%     91.65% # Number of instructions fetched each cycle (Total)
system.switch_cpus0.fetch.rateDist::3           17680      0.73%     92.38% # Number of instructions fetched each cycle (Total)
system.switch_cpus0.fetch.rateDist::4           20340      0.84%     93.22% # Number of instructions fetched each cycle (Total)
system.switch_cpus0.fetch.rateDist::5           11690      0.48%     93.70% # Number of instructions fetched each cycle (Total)
system.switch_cpus0.fetch.rateDist::6            7713      0.32%     94.02% # Number of instructions fetched each cycle (Total)
system.switch_cpus0.fetch.rateDist::7           20665      0.85%     94.88% # Number of instructions fetched each cycle (Total)
system.switch_cpus0.fetch.rateDist::8          124117      5.12%    100.00% # Number of instructions fetched each cycle (Total)
system.switch_cpus0.fetch.rateDist::overflows            0      0.00%    100.00% # Number of instructions fetched each cycle (Total)
system.switch_cpus0.fetch.rateDist::min_value            0                       # Number of instructions fetched each cycle (Total)
system.switch_cpus0.fetch.rateDist::max_value            8                       # Number of instructions fetched each cycle (Total)
system.switch_cpus0.fetch.rateDist::total      2422028                       # Number of instructions fetched each cycle (Total)
system.switch_cpus0.fetch.branchRate         0.078822                       # Number of branch fetches per cycle
system.switch_cpus0.fetch.rate               0.449919                       # Number of inst fetches per cycle
system.switch_cpus0.decode.IdleCycles         1991448                       # Number of cycles decode is idle
system.switch_cpus0.decode.BlockedCycles       127360                       # Number of cycles decode is blocked
system.switch_cpus0.decode.RunCycles           259949                       # Number of cycles decode is running
system.switch_cpus0.decode.UnblockCycles         2084                       # Number of cycles decode is unblocking
system.switch_cpus0.decode.SquashCycles         41183                       # Number of cycles decode is squashing
system.switch_cpus0.decode.BranchResolved        34076                       # Number of times decode resolved a branch
system.switch_cpus0.decode.BranchMispred          398                       # Number of times decode detected a branch misprediction
system.switch_cpus0.decode.DecodedInsts       1463878                       # Number of instructions handled by decode
system.switch_cpus0.decode.SquashedInsts         2186                       # Number of squashed instructions handled by decode
system.switch_cpus0.rename.SquashCycles         41183                       # Number of cycles rename is squashing
system.switch_cpus0.rename.IdleCycles         1995050                       # Number of cycles rename is idle
system.switch_cpus0.rename.BlockCycles          19497                       # Number of cycles rename is blocking
system.switch_cpus0.rename.serializeStallCycles        98664                       # count of cycles rename stalled for serializing inst
system.switch_cpus0.rename.RunCycles           258462                       # Number of cycles rename is running
system.switch_cpus0.rename.UnblockCycles         9168                       # Number of cycles rename is unblocking
system.switch_cpus0.rename.RenamedInsts       1461623                       # Number of instructions processed by rename
system.switch_cpus0.rename.ROBFullEvents            5                       # Number of times rename has blocked due to ROB full
system.switch_cpus0.rename.IQFullEvents          2050                       # Number of times rename has blocked due to IQ full
system.switch_cpus0.rename.LSQFullEvents         4453                       # Number of times rename has blocked due to LSQ full
system.switch_cpus0.rename.RenamedOperands      2032931                       # Number of destination operands rename has renamed
system.switch_cpus0.rename.RenameLookups      6803345                       # Number of register rename lookups that rename has made
system.switch_cpus0.rename.int_rename_lookups      6803345                       # Number of integer rename lookups
system.switch_cpus0.rename.CommittedMaps      1703093                       # Number of HB maps that are committed
system.switch_cpus0.rename.UndoneMaps          329825                       # Number of HB maps that are undone due to squashing
system.switch_cpus0.rename.serializingInsts          388                       # count of serializing insts renamed
system.switch_cpus0.rename.tempSerializingInsts          221                       # count of temporary serializing insts renamed
system.switch_cpus0.rename.skidInsts            26684                       # count of insts added to the skid buffer
system.switch_cpus0.memDep0.insertedLoads       140680                       # Number of loads inserted to the mem dependence unit.
system.switch_cpus0.memDep0.insertedStores        75412                       # Number of stores inserted to the mem dependence unit.
system.switch_cpus0.memDep0.conflictingLoads         1926                       # Number of conflicting loads.
system.switch_cpus0.memDep0.conflictingStores        15748                       # Number of conflicting stores.
system.switch_cpus0.iq.iqInstsAdded           1457579                       # Number of instructions added to the IQ (excludes non-spec)
system.switch_cpus0.iq.iqNonSpecInstsAdded          390                       # Number of non-speculative instructions added to the IQ
system.switch_cpus0.iq.iqInstsIssued          1367666                       # Number of instructions issued
system.switch_cpus0.iq.iqSquashedInstsIssued         2051                       # Number of squashed instructions issued
system.switch_cpus0.iq.iqSquashedInstsExamined       201581                       # Number of squashed instructions iterated over during squash; mainly for profiling
system.switch_cpus0.iq.iqSquashedOperandsExamined       472253                       # Number of squashed operands that are examined and possibly removed from graph
system.switch_cpus0.iq.iqSquashedNonSpecRemoved           53                       # Number of squashed non-spec instructions that were removed
system.switch_cpus0.iq.issued_per_cycle::samples      2422028                       # Number of insts issued each cycle
system.switch_cpus0.iq.issued_per_cycle::mean     0.564678                       # Number of insts issued each cycle
system.switch_cpus0.iq.issued_per_cycle::stdev     1.257168                       # Number of insts issued each cycle
system.switch_cpus0.iq.issued_per_cycle::underflows            0      0.00%      0.00% # Number of insts issued each cycle
system.switch_cpus0.iq.issued_per_cycle::0      1846429     76.23%     76.23% # Number of insts issued each cycle
system.switch_cpus0.iq.issued_per_cycle::1       231202      9.55%     85.78% # Number of insts issued each cycle
system.switch_cpus0.iq.issued_per_cycle::2       124591      5.14%     90.92% # Number of insts issued each cycle
system.switch_cpus0.iq.issued_per_cycle::3        85785      3.54%     94.47% # Number of insts issued each cycle
system.switch_cpus0.iq.issued_per_cycle::4        75336      3.11%     97.58% # Number of insts issued each cycle
system.switch_cpus0.iq.issued_per_cycle::5        38689      1.60%     99.17% # Number of insts issued each cycle
system.switch_cpus0.iq.issued_per_cycle::6         9355      0.39%     99.56% # Number of insts issued each cycle
system.switch_cpus0.iq.issued_per_cycle::7         6120      0.25%     99.81% # Number of insts issued each cycle
system.switch_cpus0.iq.issued_per_cycle::8         4521      0.19%    100.00% # Number of insts issued each cycle
system.switch_cpus0.iq.issued_per_cycle::overflows            0      0.00%    100.00% # Number of insts issued each cycle
system.switch_cpus0.iq.issued_per_cycle::min_value            0                       # Number of insts issued each cycle
system.switch_cpus0.iq.issued_per_cycle::max_value            8                       # Number of insts issued each cycle
system.switch_cpus0.iq.issued_per_cycle::total      2422028                       # Number of insts issued each cycle
system.switch_cpus0.iq.fu_full::No_OpClass            0      0.00%      0.00% # attempts to use FU when none available
system.switch_cpus0.iq.fu_full::IntAlu            346     11.50%     11.50% # attempts to use FU when none available
system.switch_cpus0.iq.fu_full::IntMult             0      0.00%     11.50% # attempts to use FU when none available
system.switch_cpus0.iq.fu_full::IntDiv              0      0.00%     11.50% # attempts to use FU when none available
system.switch_cpus0.iq.fu_full::FloatAdd            0      0.00%     11.50% # attempts to use FU when none available
system.switch_cpus0.iq.fu_full::FloatCmp            0      0.00%     11.50% # attempts to use FU when none available
system.switch_cpus0.iq.fu_full::FloatCvt            0      0.00%     11.50% # attempts to use FU when none available
system.switch_cpus0.iq.fu_full::FloatMult            0      0.00%     11.50% # attempts to use FU when none available
system.switch_cpus0.iq.fu_full::FloatDiv            0      0.00%     11.50% # attempts to use FU when none available
system.switch_cpus0.iq.fu_full::FloatSqrt            0      0.00%     11.50% # attempts to use FU when none available
system.switch_cpus0.iq.fu_full::SimdAdd             0      0.00%     11.50% # attempts to use FU when none available
system.switch_cpus0.iq.fu_full::SimdAddAcc            0      0.00%     11.50% # attempts to use FU when none available
system.switch_cpus0.iq.fu_full::SimdAlu             0      0.00%     11.50% # attempts to use FU when none available
system.switch_cpus0.iq.fu_full::SimdCmp             0      0.00%     11.50% # attempts to use FU when none available
system.switch_cpus0.iq.fu_full::SimdCvt             0      0.00%     11.50% # attempts to use FU when none available
system.switch_cpus0.iq.fu_full::SimdMisc            0      0.00%     11.50% # attempts to use FU when none available
system.switch_cpus0.iq.fu_full::SimdMult            0      0.00%     11.50% # attempts to use FU when none available
system.switch_cpus0.iq.fu_full::SimdMultAcc            0      0.00%     11.50% # attempts to use FU when none available
system.switch_cpus0.iq.fu_full::SimdShift            0      0.00%     11.50% # attempts to use FU when none available
system.switch_cpus0.iq.fu_full::SimdShiftAcc            0      0.00%     11.50% # attempts to use FU when none available
system.switch_cpus0.iq.fu_full::SimdSqrt            0      0.00%     11.50% # attempts to use FU when none available
system.switch_cpus0.iq.fu_full::SimdFloatAdd            0      0.00%     11.50% # attempts to use FU when none available
system.switch_cpus0.iq.fu_full::SimdFloatAlu            0      0.00%     11.50% # attempts to use FU when none available
system.switch_cpus0.iq.fu_full::SimdFloatCmp            0      0.00%     11.50% # attempts to use FU when none available
system.switch_cpus0.iq.fu_full::SimdFloatCvt            0      0.00%     11.50% # attempts to use FU when none available
system.switch_cpus0.iq.fu_full::SimdFloatDiv            0      0.00%     11.50% # attempts to use FU when none available
system.switch_cpus0.iq.fu_full::SimdFloatMisc            0      0.00%     11.50% # attempts to use FU when none available
system.switch_cpus0.iq.fu_full::SimdFloatMult            0      0.00%     11.50% # attempts to use FU when none available
system.switch_cpus0.iq.fu_full::SimdFloatMultAcc            0      0.00%     11.50% # attempts to use FU when none available
system.switch_cpus0.iq.fu_full::SimdFloatSqrt            0      0.00%     11.50% # attempts to use FU when none available
system.switch_cpus0.iq.fu_full::MemRead          1313     43.64%     55.13% # attempts to use FU when none available
system.switch_cpus0.iq.fu_full::MemWrite         1350     44.87%    100.00% # attempts to use FU when none available
system.switch_cpus0.iq.fu_full::IprAccess            0      0.00%    100.00% # attempts to use FU when none available
system.switch_cpus0.iq.fu_full::InstPrefetch            0      0.00%    100.00% # attempts to use FU when none available
system.switch_cpus0.iq.FU_type_0::No_OpClass            0      0.00%      0.00% # Type of FU issued
system.switch_cpus0.iq.FU_type_0::IntAlu      1144782     83.70%     83.70% # Type of FU issued
system.switch_cpus0.iq.FU_type_0::IntMult        21291      1.56%     85.26% # Type of FU issued
system.switch_cpus0.iq.FU_type_0::IntDiv            0      0.00%     85.26% # Type of FU issued
system.switch_cpus0.iq.FU_type_0::FloatAdd            0      0.00%     85.26% # Type of FU issued
system.switch_cpus0.iq.FU_type_0::FloatCmp            0      0.00%     85.26% # Type of FU issued
system.switch_cpus0.iq.FU_type_0::FloatCvt            0      0.00%     85.26% # Type of FU issued
system.switch_cpus0.iq.FU_type_0::FloatMult            0      0.00%     85.26% # Type of FU issued
system.switch_cpus0.iq.FU_type_0::FloatDiv            0      0.00%     85.26% # Type of FU issued
system.switch_cpus0.iq.FU_type_0::FloatSqrt            0      0.00%     85.26% # Type of FU issued
system.switch_cpus0.iq.FU_type_0::SimdAdd            0      0.00%     85.26% # Type of FU issued
system.switch_cpus0.iq.FU_type_0::SimdAddAcc            0      0.00%     85.26% # Type of FU issued
system.switch_cpus0.iq.FU_type_0::SimdAlu            0      0.00%     85.26% # Type of FU issued
system.switch_cpus0.iq.FU_type_0::SimdCmp            0      0.00%     85.26% # Type of FU issued
system.switch_cpus0.iq.FU_type_0::SimdCvt            0      0.00%     85.26% # Type of FU issued
system.switch_cpus0.iq.FU_type_0::SimdMisc            0      0.00%     85.26% # Type of FU issued
system.switch_cpus0.iq.FU_type_0::SimdMult            0      0.00%     85.26% # Type of FU issued
system.switch_cpus0.iq.FU_type_0::SimdMultAcc            0      0.00%     85.26% # Type of FU issued
system.switch_cpus0.iq.FU_type_0::SimdShift            0      0.00%     85.26% # Type of FU issued
system.switch_cpus0.iq.FU_type_0::SimdShiftAcc            0      0.00%     85.26% # Type of FU issued
system.switch_cpus0.iq.FU_type_0::SimdSqrt            0      0.00%     85.26% # Type of FU issued
system.switch_cpus0.iq.FU_type_0::SimdFloatAdd            0      0.00%     85.26% # Type of FU issued
system.switch_cpus0.iq.FU_type_0::SimdFloatAlu            0      0.00%     85.26% # Type of FU issued
system.switch_cpus0.iq.FU_type_0::SimdFloatCmp            0      0.00%     85.26% # Type of FU issued
system.switch_cpus0.iq.FU_type_0::SimdFloatCvt            0      0.00%     85.26% # Type of FU issued
system.switch_cpus0.iq.FU_type_0::SimdFloatDiv            0      0.00%     85.26% # Type of FU issued
system.switch_cpus0.iq.FU_type_0::SimdFloatMisc          166      0.01%     85.27% # Type of FU issued
system.switch_cpus0.iq.FU_type_0::SimdFloatMult            0      0.00%     85.27% # Type of FU issued
system.switch_cpus0.iq.FU_type_0::SimdFloatMultAcc            0      0.00%     85.27% # Type of FU issued
system.switch_cpus0.iq.FU_type_0::SimdFloatSqrt            0      0.00%     85.27% # Type of FU issued
system.switch_cpus0.iq.FU_type_0::MemRead       126782      9.27%     94.54% # Type of FU issued
system.switch_cpus0.iq.FU_type_0::MemWrite        74645      5.46%    100.00% # Type of FU issued
system.switch_cpus0.iq.FU_type_0::IprAccess            0      0.00%    100.00% # Type of FU issued
system.switch_cpus0.iq.FU_type_0::InstPrefetch            0      0.00%    100.00% # Type of FU issued
system.switch_cpus0.iq.FU_type_0::total       1367666                       # Type of FU issued
system.switch_cpus0.iq.rate                  0.512912                       # Inst issue rate
system.switch_cpus0.iq.fu_busy_cnt               3009                       # FU busy when requested
system.switch_cpus0.iq.fu_busy_rate          0.002200                       # FU busy rate (busy events/executed inst)
system.switch_cpus0.iq.int_inst_queue_reads      5162419                       # Number of integer instruction queue reads
system.switch_cpus0.iq.int_inst_queue_writes      1659593                       # Number of integer instruction queue writes
system.switch_cpus0.iq.int_inst_queue_wakeup_accesses      1342702                       # Number of integer instruction queue wakeup accesses
system.switch_cpus0.iq.fp_inst_queue_reads            0                       # Number of floating instruction queue reads
system.switch_cpus0.iq.fp_inst_queue_writes            0                       # Number of floating instruction queue writes
system.switch_cpus0.iq.fp_inst_queue_wakeup_accesses            0                       # Number of floating instruction queue wakeup accesses
system.switch_cpus0.iq.int_alu_accesses       1370675                       # Number of integer alu accesses
system.switch_cpus0.iq.fp_alu_accesses              0                       # Number of floating point alu accesses
system.switch_cpus0.iew.lsq.thread0.forwLoads         3384                       # Number of loads that had data forwarded from stores
system.switch_cpus0.iew.lsq.thread0.invAddrLoads            0                       # Number of loads ignored due to an invalid address
system.switch_cpus0.iew.lsq.thread0.squashedLoads        27799                       # Number of loads squashed
system.switch_cpus0.iew.lsq.thread0.ignoredResponses            6                       # Number of memory responses ignored because the instruction is squashed
system.switch_cpus0.iew.lsq.thread0.memOrderViolation           44                       # Number of memory ordering violations
system.switch_cpus0.iew.lsq.thread0.squashedStores         2346                       # Number of stores squashed
system.switch_cpus0.iew.lsq.thread0.invAddrSwpfs            0                       # Number of software prefetches ignored due to an invalid address
system.switch_cpus0.iew.lsq.thread0.blockedLoads            0                       # Number of blocked loads due to partial load-store forwarding
system.switch_cpus0.iew.lsq.thread0.rescheduledLoads           83                       # Number of loads that were rescheduled
system.switch_cpus0.iew.lsq.thread0.cacheBlocked            9                       # Number of times an access to memory failed due to the cache being blocked
system.switch_cpus0.iew.iewIdleCycles               0                       # Number of cycles IEW is idle
system.switch_cpus0.iew.iewSquashCycles         41183                       # Number of cycles IEW is squashing
system.switch_cpus0.iew.iewBlockCycles          14508                       # Number of cycles IEW is blocking
system.switch_cpus0.iew.iewUnblockCycles         1304                       # Number of cycles IEW is unblocking
system.switch_cpus0.iew.iewDispatchedInsts      1457977                       # Number of instructions dispatched to IQ
system.switch_cpus0.iew.iewDispSquashedInsts           53                       # Number of squashed instructions skipped by dispatch
system.switch_cpus0.iew.iewDispLoadInsts       140680                       # Number of dispatched load instructions
system.switch_cpus0.iew.iewDispStoreInsts        75412                       # Number of dispatched store instructions
system.switch_cpus0.iew.iewDispNonSpecInsts          222                       # Number of dispatched non-speculative instructions
system.switch_cpus0.iew.iewIQFullEvents           918                       # Number of times the IQ has become full, causing a stall
system.switch_cpus0.iew.iewLSQFullEvents            0                       # Number of times the LSQ has become full, causing a stall
system.switch_cpus0.iew.memOrderViolationEvents           44                       # Number of memory order violations
system.switch_cpus0.iew.predictedTakenIncorrect        12268                       # Number of branches that were predicted taken incorrectly
system.switch_cpus0.iew.predictedNotTakenIncorrect        13015                       # Number of branches that were predicted not taken incorrectly
system.switch_cpus0.iew.branchMispredicts        25283                       # Number of branch mispredicts detected at execute
system.switch_cpus0.iew.iewExecutedInsts      1345745                       # Number of executed instructions
system.switch_cpus0.iew.iewExecLoadInsts       118651                       # Number of load instructions executed
system.switch_cpus0.iew.iewExecSquashedInsts        21920                       # Number of squashed instructions skipped in execute
system.switch_cpus0.iew.exec_swp                    0                       # number of swp insts executed
system.switch_cpus0.iew.exec_nop                    8                       # number of nop insts executed
system.switch_cpus0.iew.exec_refs              193248                       # number of memory reference insts executed
system.switch_cpus0.iew.exec_branches          187605                       # Number of branches executed
system.switch_cpus0.iew.exec_stores             74597                       # Number of stores executed
system.switch_cpus0.iew.exec_rate            0.504691                       # Inst execution rate
system.switch_cpus0.iew.wb_sent               1342797                       # cumulative count of insts sent to commit
system.switch_cpus0.iew.wb_count              1342702                       # cumulative count of insts written-back
system.switch_cpus0.iew.wb_producers           798870                       # num instructions producing a value
system.switch_cpus0.iew.wb_consumers          2092640                       # num instructions consuming a value
system.switch_cpus0.iew.wb_penalized                0                       # number of instrctions required to write to 'other' IQ
system.switch_cpus0.iew.wb_rate              0.503550                       # insts written-back per cycle
system.switch_cpus0.iew.wb_fanout            0.381752                       # average fanout of values written-back
system.switch_cpus0.iew.wb_penalized_rate            0                       # fraction of instructions written-back that wrote to 'other' IQ
system.switch_cpus0.commit.commitCommittedInsts      1000002                       # The number of committed instructions
system.switch_cpus0.commit.commitCommittedOps      1226889                       # The number of committed instructions
system.switch_cpus0.commit.commitSquashedInsts       231095                       # The number of squashed insts skipped by commit
system.switch_cpus0.commit.commitNonSpecStalls          337                       # The number of times commit has been forced to stall to communicate backwards
system.switch_cpus0.commit.branchMispredicts        22209                       # The number of times a branch was mispredicted
system.switch_cpus0.commit.committed_per_cycle::samples      2380845                       # Number of insts commited each cycle
system.switch_cpus0.commit.committed_per_cycle::mean     0.515317                       # Number of insts commited each cycle
system.switch_cpus0.commit.committed_per_cycle::stdev     1.332433                       # Number of insts commited each cycle
system.switch_cpus0.commit.committed_per_cycle::underflows            0      0.00%      0.00% # Number of insts commited each cycle
system.switch_cpus0.commit.committed_per_cycle::0      1879348     78.94%     78.94% # Number of insts commited each cycle
system.switch_cpus0.commit.committed_per_cycle::1       232739      9.78%     88.71% # Number of insts commited each cycle
system.switch_cpus0.commit.committed_per_cycle::2        97570      4.10%     92.81% # Number of insts commited each cycle
system.switch_cpus0.commit.committed_per_cycle::3        58504      2.46%     95.27% # Number of insts commited each cycle
system.switch_cpus0.commit.committed_per_cycle::4        40162      1.69%     96.95% # Number of insts commited each cycle
system.switch_cpus0.commit.committed_per_cycle::5        26309      1.11%     98.06% # Number of insts commited each cycle
system.switch_cpus0.commit.committed_per_cycle::6        13807      0.58%     98.64% # Number of insts commited each cycle
system.switch_cpus0.commit.committed_per_cycle::7        10785      0.45%     99.09% # Number of insts commited each cycle
system.switch_cpus0.commit.committed_per_cycle::8        21621      0.91%    100.00% # Number of insts commited each cycle
system.switch_cpus0.commit.committed_per_cycle::overflows            0      0.00%    100.00% # Number of insts commited each cycle
system.switch_cpus0.commit.committed_per_cycle::min_value            0                       # Number of insts commited each cycle
system.switch_cpus0.commit.committed_per_cycle::max_value            8                       # Number of insts commited each cycle
system.switch_cpus0.commit.committed_per_cycle::total      2380845                       # Number of insts commited each cycle
system.switch_cpus0.commit.committedInsts      1000002                       # Number of instructions committed
system.switch_cpus0.commit.committedOps       1226889                       # Number of ops (including micro ops) committed
system.switch_cpus0.commit.swp_count                0                       # Number of s/w prefetches committed
system.switch_cpus0.commit.refs                185944                       # Number of memory references committed
system.switch_cpus0.commit.loads               112879                       # Number of loads committed
system.switch_cpus0.commit.membars                168                       # Number of memory barriers committed
system.switch_cpus0.commit.branches            175550                       # Number of branches committed
system.switch_cpus0.commit.fp_insts                 0                       # Number of committed floating point instructions.
system.switch_cpus0.commit.int_insts          1106121                       # Number of committed integer instructions.
system.switch_cpus0.commit.function_calls        24959                       # Number of function calls committed.
system.switch_cpus0.commit.bw_lim_events        21621                       # number cycles where commit BW limit reached
system.switch_cpus0.commit.bw_limited               0                       # number of insts not committed due to BW limits
system.switch_cpus0.rob.rob_reads             3817195                       # The number of ROB reads
system.switch_cpus0.rob.rob_writes            2957171                       # The number of ROB writes
system.switch_cpus0.timesIdled                  32718                       # Number of times that the entire CPU went into an idle state and unscheduled itself
system.switch_cpus0.idleCycles                 244445                       # Total number of cycles that the CPU has spent unscheduled due to idling
system.switch_cpus0.committedInsts            1000002                       # Number of Instructions Simulated
system.switch_cpus0.committedOps              1226889                       # Number of Ops (including micro ops) Simulated
system.switch_cpus0.committedInsts_total      1000002                       # Number of Instructions Simulated
system.switch_cpus0.cpi                      2.666468                       # CPI: Cycles Per Instruction
system.switch_cpus0.cpi_total                2.666468                       # CPI: Total CPI of All Threads
system.switch_cpus0.ipc                      0.375028                       # IPC: Instructions Per Cycle
system.switch_cpus0.ipc_total                0.375028                       # IPC: Total IPC of All Threads
system.switch_cpus0.int_regfile_reads         6068651                       # number of integer regfile reads
system.switch_cpus0.int_regfile_writes        1866102                       # number of integer regfile writes
system.switch_cpus0.misc_regfile_reads        1364675                       # number of misc regfile reads
system.switch_cpus0.misc_regfile_writes           336                       # number of misc regfile writes
system.switch_cpus1.dtb.inst_hits                   0                       # ITB inst hits
system.switch_cpus1.dtb.inst_misses                 0                       # ITB inst misses
system.switch_cpus1.dtb.read_hits                   0                       # DTB read hits
system.switch_cpus1.dtb.read_misses                 0                       # DTB read misses
system.switch_cpus1.dtb.write_hits                  0                       # DTB write hits
system.switch_cpus1.dtb.write_misses                0                       # DTB write misses
system.switch_cpus1.dtb.flush_tlb                   0                       # Number of times complete TLB was flushed
system.switch_cpus1.dtb.flush_tlb_mva               0                       # Number of times TLB was flushed by MVA
system.switch_cpus1.dtb.flush_tlb_mva_asid            0                       # Number of times TLB was flushed by MVA & ASID
system.switch_cpus1.dtb.flush_tlb_asid              0                       # Number of times TLB was flushed by ASID
system.switch_cpus1.dtb.flush_entries               0                       # Number of entries that have been flushed from TLB
system.switch_cpus1.dtb.align_faults                0                       # Number of TLB faults due to alignment restrictions
system.switch_cpus1.dtb.prefetch_faults             0                       # Number of TLB faults due to prefetch
system.switch_cpus1.dtb.domain_faults               0                       # Number of TLB faults due to domain restrictions
system.switch_cpus1.dtb.perms_faults                0                       # Number of TLB faults due to permissions restrictions
system.switch_cpus1.dtb.read_accesses               0                       # DTB read accesses
system.switch_cpus1.dtb.write_accesses              0                       # DTB write accesses
system.switch_cpus1.dtb.inst_accesses               0                       # ITB inst accesses
system.switch_cpus1.dtb.hits                        0                       # DTB hits
system.switch_cpus1.dtb.misses                      0                       # DTB misses
system.switch_cpus1.dtb.accesses                    0                       # DTB accesses
system.switch_cpus1.itb.inst_hits                   0                       # ITB inst hits
system.switch_cpus1.itb.inst_misses                 0                       # ITB inst misses
system.switch_cpus1.itb.read_hits                   0                       # DTB read hits
system.switch_cpus1.itb.read_misses                 0                       # DTB read misses
system.switch_cpus1.itb.write_hits                  0                       # DTB write hits
system.switch_cpus1.itb.write_misses                0                       # DTB write misses
system.switch_cpus1.itb.flush_tlb                   0                       # Number of times complete TLB was flushed
system.switch_cpus1.itb.flush_tlb_mva               0                       # Number of times TLB was flushed by MVA
system.switch_cpus1.itb.flush_tlb_mva_asid            0                       # Number of times TLB was flushed by MVA & ASID
system.switch_cpus1.itb.flush_tlb_asid              0                       # Number of times TLB was flushed by ASID
system.switch_cpus1.itb.flush_entries               0                       # Number of entries that have been flushed from TLB
system.switch_cpus1.itb.align_faults                0                       # Number of TLB faults due to alignment restrictions
system.switch_cpus1.itb.prefetch_faults             0                       # Number of TLB faults due to prefetch
system.switch_cpus1.itb.domain_faults               0                       # Number of TLB faults due to domain restrictions
system.switch_cpus1.itb.perms_faults                0                       # Number of TLB faults due to permissions restrictions
system.switch_cpus1.itb.read_accesses               0                       # DTB read accesses
system.switch_cpus1.itb.write_accesses              0                       # DTB write accesses
system.switch_cpus1.itb.inst_accesses               0                       # ITB inst accesses
system.switch_cpus1.itb.hits                        0                       # DTB hits
system.switch_cpus1.itb.misses                      0                       # DTB misses
system.switch_cpus1.itb.accesses                    0                       # DTB accesses
system.cpu1.workload.num_syscalls                   1                       # Number of system calls
system.switch_cpus1.numCycles                 2666473                       # number of cpu cycles simulated
system.switch_cpus1.numWorkItemsStarted             0                       # number of work items this cpu started
system.switch_cpus1.numWorkItemsCompleted            0                       # number of work items this cpu completed
system.switch_cpus1.BPredUnit.lookups          194698                       # Number of BP lookups
system.switch_cpus1.BPredUnit.condPredicted       175006                       # Number of conditional branches predicted
system.switch_cpus1.BPredUnit.condIncorrect        16974                       # Number of conditional branches incorrect
system.switch_cpus1.BPredUnit.BTBLookups       132146                       # Number of BTB lookups
system.switch_cpus1.BPredUnit.BTBHits          128296                       # Number of BTB hits
system.switch_cpus1.BPredUnit.BTBCorrect            0                       # Number of correct BTB predictions (this stat may not work properly.
system.switch_cpus1.BPredUnit.usedRAS           10584                       # Number of times the RAS was used to get a target.
system.switch_cpus1.BPredUnit.RASInCorrect          518                       # Number of incorrect RAS predictions.
system.switch_cpus1.fetch.icacheStallCycles      2066635                       # Number of cycles fetch is stalled on an Icache miss
system.switch_cpus1.fetch.Insts               1109934                       # Number of instructions fetch has processed
system.switch_cpus1.fetch.Branches             194698                       # Number of branches that fetch encountered
system.switch_cpus1.fetch.predictedBranches       138880                       # Number of branches that fetch has predicted taken
system.switch_cpus1.fetch.Cycles               246503                       # Number of cycles fetch has run and was not squashing or blocked
system.switch_cpus1.fetch.SquashCycles          56456                       # Number of cycles fetch has spent squashing
system.switch_cpus1.fetch.BlockedCycles         44253                       # Number of cycles fetch has spent blocked
system.switch_cpus1.fetch.CacheLines           126304                       # Number of cache lines fetched
system.switch_cpus1.fetch.IcacheSquashes        16428                       # Number of outstanding Icache misses that were squashed
system.switch_cpus1.fetch.rateDist::samples      2396773                       # Number of instructions fetched each cycle (Total)
system.switch_cpus1.fetch.rateDist::mean     0.516018                       # Number of instructions fetched each cycle (Total)
system.switch_cpus1.fetch.rateDist::stdev     1.754314                       # Number of instructions fetched each cycle (Total)
system.switch_cpus1.fetch.rateDist::underflows            0      0.00%      0.00% # Number of instructions fetched each cycle (Total)
system.switch_cpus1.fetch.rateDist::0         2150270     89.72%     89.72% # Number of instructions fetched each cycle (Total)
system.switch_cpus1.fetch.rateDist::1           38337      1.60%     91.31% # Number of instructions fetched each cycle (Total)
system.switch_cpus1.fetch.rateDist::2           18276      0.76%     92.08% # Number of instructions fetched each cycle (Total)
system.switch_cpus1.fetch.rateDist::3           37856      1.58%     93.66% # Number of instructions fetched each cycle (Total)
system.switch_cpus1.fetch.rateDist::4           10695      0.45%     94.10% # Number of instructions fetched each cycle (Total)
system.switch_cpus1.fetch.rateDist::5           35483      1.48%     95.58% # Number of instructions fetched each cycle (Total)
system.switch_cpus1.fetch.rateDist::6            5128      0.21%     95.80% # Number of instructions fetched each cycle (Total)
system.switch_cpus1.fetch.rateDist::7            8466      0.35%     96.15% # Number of instructions fetched each cycle (Total)
system.switch_cpus1.fetch.rateDist::8           92262      3.85%    100.00% # Number of instructions fetched each cycle (Total)
system.switch_cpus1.fetch.rateDist::overflows            0      0.00%    100.00% # Number of instructions fetched each cycle (Total)
system.switch_cpus1.fetch.rateDist::min_value            0                       # Number of instructions fetched each cycle (Total)
system.switch_cpus1.fetch.rateDist::max_value            8                       # Number of instructions fetched each cycle (Total)
system.switch_cpus1.fetch.rateDist::total      2396773                       # Number of instructions fetched each cycle (Total)
system.switch_cpus1.fetch.branchRate         0.073017                       # Number of branch fetches per cycle
system.switch_cpus1.fetch.rate               0.416255                       # Number of inst fetches per cycle
system.switch_cpus1.decode.IdleCycles         2042699                       # Number of cycles decode is idle
system.switch_cpus1.decode.BlockedCycles        68969                       # Number of cycles decode is blocked
system.switch_cpus1.decode.RunCycles           245835                       # Number of cycles decode is running
system.switch_cpus1.decode.UnblockCycles          265                       # Number of cycles decode is unblocking
system.switch_cpus1.decode.SquashCycles         39002                       # Number of cycles decode is squashing
system.switch_cpus1.decode.BranchResolved        17150                       # Number of times decode resolved a branch
system.switch_cpus1.decode.BranchMispred          380                       # Number of times decode detected a branch misprediction
system.switch_cpus1.decode.DecodedInsts       1232032                       # Number of instructions handled by decode
system.switch_cpus1.decode.SquashedInsts         1673                       # Number of squashed instructions handled by decode
system.switch_cpus1.rename.SquashCycles         39002                       # Number of cycles rename is squashing
system.switch_cpus1.rename.IdleCycles         2045729                       # Number of cycles rename is idle
system.switch_cpus1.rename.BlockCycles          44468                       # Number of cycles rename is blocking
system.switch_cpus1.rename.serializeStallCycles        15927                       # count of cycles rename stalled for serializing inst
system.switch_cpus1.rename.RunCycles           242986                       # Number of cycles rename is running
system.switch_cpus1.rename.UnblockCycles         8658                       # Number of cycles rename is unblocking
system.switch_cpus1.rename.RenamedInsts       1229314                       # Number of instructions processed by rename
system.switch_cpus1.rename.ROBFullEvents            4                       # Number of times rename has blocked due to ROB full
system.switch_cpus1.rename.IQFullEvents          1066                       # Number of times rename has blocked due to IQ full
system.switch_cpus1.rename.LSQFullEvents         6831                       # Number of times rename has blocked due to LSQ full
system.switch_cpus1.rename.RenamedOperands      1602320                       # Number of destination operands rename has renamed
system.switch_cpus1.rename.RenameLookups      5556536                       # Number of register rename lookups that rename has made
system.switch_cpus1.rename.int_rename_lookups      5556536                       # Number of integer rename lookups
system.switch_cpus1.rename.CommittedMaps      1264514                       # Number of HB maps that are committed
system.switch_cpus1.rename.UndoneMaps          337780                       # Number of HB maps that are undone due to squashing
system.switch_cpus1.rename.serializingInsts          160                       # count of serializing insts renamed
system.switch_cpus1.rename.tempSerializingInsts           87                       # count of temporary serializing insts renamed
system.switch_cpus1.rename.skidInsts            19265                       # count of insts added to the skid buffer
system.switch_cpus1.memDep0.insertedLoads       230651                       # Number of loads inserted to the mem dependence unit.
system.switch_cpus1.memDep0.insertedStores        33301                       # Number of stores inserted to the mem dependence unit.
system.switch_cpus1.memDep0.conflictingLoads          352                       # Number of conflicting loads.
system.switch_cpus1.memDep0.conflictingStores         7424                       # Number of conflicting stores.
system.switch_cpus1.iq.iqInstsAdded           1221116                       # Number of instructions added to the IQ (excludes non-spec)
system.switch_cpus1.iq.iqNonSpecInstsAdded          161                       # Number of non-speculative instructions added to the IQ
system.switch_cpus1.iq.iqInstsIssued          1131242                       # Number of instructions issued
system.switch_cpus1.iq.iqSquashedInstsIssued         1207                       # Number of squashed instructions issued
system.switch_cpus1.iq.iqSquashedInstsExamined       244008                       # Number of squashed instructions iterated over during squash; mainly for profiling
system.switch_cpus1.iq.iqSquashedOperandsExamined       516380                       # Number of squashed operands that are examined and possibly removed from graph
system.switch_cpus1.iq.iqSquashedNonSpecRemoved            8                       # Number of squashed non-spec instructions that were removed
system.switch_cpus1.iq.issued_per_cycle::samples      2396773                       # Number of insts issued each cycle
system.switch_cpus1.iq.issued_per_cycle::mean     0.471985                       # Number of insts issued each cycle
system.switch_cpus1.iq.issued_per_cycle::stdev     1.082212                       # Number of insts issued each cycle
system.switch_cpus1.iq.issued_per_cycle::underflows            0      0.00%      0.00% # Number of insts issued each cycle
system.switch_cpus1.iq.issued_per_cycle::0      1901348     79.33%     79.33% # Number of insts issued each cycle
system.switch_cpus1.iq.issued_per_cycle::1       150945      6.30%     85.63% # Number of insts issued each cycle
system.switch_cpus1.iq.issued_per_cycle::2       171494      7.16%     92.78% # Number of insts issued each cycle
system.switch_cpus1.iq.issued_per_cycle::3        97260      4.06%     96.84% # Number of insts issued each cycle
system.switch_cpus1.iq.issued_per_cycle::4        48584      2.03%     98.87% # Number of insts issued each cycle
system.switch_cpus1.iq.issued_per_cycle::5        12612      0.53%     99.39% # Number of insts issued each cycle
system.switch_cpus1.iq.issued_per_cycle::6        13884      0.58%     99.97% # Number of insts issued each cycle
system.switch_cpus1.iq.issued_per_cycle::7          339      0.01%     99.99% # Number of insts issued each cycle
system.switch_cpus1.iq.issued_per_cycle::8          307      0.01%    100.00% # Number of insts issued each cycle
system.switch_cpus1.iq.issued_per_cycle::overflows            0      0.00%    100.00% # Number of insts issued each cycle
system.switch_cpus1.iq.issued_per_cycle::min_value            0                       # Number of insts issued each cycle
system.switch_cpus1.iq.issued_per_cycle::max_value            8                       # Number of insts issued each cycle
system.switch_cpus1.iq.issued_per_cycle::total      2396773                       # Number of insts issued each cycle
system.switch_cpus1.iq.fu_full::No_OpClass            0      0.00%      0.00% # attempts to use FU when none available
system.switch_cpus1.iq.fu_full::IntAlu           1887     57.60%     57.60% # attempts to use FU when none available
system.switch_cpus1.iq.fu_full::IntMult             0      0.00%     57.60% # attempts to use FU when none available
system.switch_cpus1.iq.fu_full::IntDiv              0      0.00%     57.60% # attempts to use FU when none available
system.switch_cpus1.iq.fu_full::FloatAdd            0      0.00%     57.60% # attempts to use FU when none available
system.switch_cpus1.iq.fu_full::FloatCmp            0      0.00%     57.60% # attempts to use FU when none available
system.switch_cpus1.iq.fu_full::FloatCvt            0      0.00%     57.60% # attempts to use FU when none available
system.switch_cpus1.iq.fu_full::FloatMult            0      0.00%     57.60% # attempts to use FU when none available
system.switch_cpus1.iq.fu_full::FloatDiv            0      0.00%     57.60% # attempts to use FU when none available
system.switch_cpus1.iq.fu_full::FloatSqrt            0      0.00%     57.60% # attempts to use FU when none available
system.switch_cpus1.iq.fu_full::SimdAdd             0      0.00%     57.60% # attempts to use FU when none available
system.switch_cpus1.iq.fu_full::SimdAddAcc            0      0.00%     57.60% # attempts to use FU when none available
system.switch_cpus1.iq.fu_full::SimdAlu             0      0.00%     57.60% # attempts to use FU when none available
system.switch_cpus1.iq.fu_full::SimdCmp             0      0.00%     57.60% # attempts to use FU when none available
system.switch_cpus1.iq.fu_full::SimdCvt             0      0.00%     57.60% # attempts to use FU when none available
system.switch_cpus1.iq.fu_full::SimdMisc            0      0.00%     57.60% # attempts to use FU when none available
system.switch_cpus1.iq.fu_full::SimdMult            0      0.00%     57.60% # attempts to use FU when none available
system.switch_cpus1.iq.fu_full::SimdMultAcc            0      0.00%     57.60% # attempts to use FU when none available
system.switch_cpus1.iq.fu_full::SimdShift            0      0.00%     57.60% # attempts to use FU when none available
system.switch_cpus1.iq.fu_full::SimdShiftAcc            0      0.00%     57.60% # attempts to use FU when none available
system.switch_cpus1.iq.fu_full::SimdSqrt            0      0.00%     57.60% # attempts to use FU when none available
system.switch_cpus1.iq.fu_full::SimdFloatAdd            0      0.00%     57.60% # attempts to use FU when none available
system.switch_cpus1.iq.fu_full::SimdFloatAlu            0      0.00%     57.60% # attempts to use FU when none available
system.switch_cpus1.iq.fu_full::SimdFloatCmp            0      0.00%     57.60% # attempts to use FU when none available
system.switch_cpus1.iq.fu_full::SimdFloatCvt            0      0.00%     57.60% # attempts to use FU when none available
system.switch_cpus1.iq.fu_full::SimdFloatDiv            0      0.00%     57.60% # attempts to use FU when none available
system.switch_cpus1.iq.fu_full::SimdFloatMisc            0      0.00%     57.60% # attempts to use FU when none available
system.switch_cpus1.iq.fu_full::SimdFloatMult            0      0.00%     57.60% # attempts to use FU when none available
system.switch_cpus1.iq.fu_full::SimdFloatMultAcc            0      0.00%     57.60% # attempts to use FU when none available
system.switch_cpus1.iq.fu_full::SimdFloatSqrt            0      0.00%     57.60% # attempts to use FU when none available
system.switch_cpus1.iq.fu_full::MemRead           782     23.87%     81.47% # attempts to use FU when none available
system.switch_cpus1.iq.fu_full::MemWrite          607     18.53%    100.00% # attempts to use FU when none available
system.switch_cpus1.iq.fu_full::IprAccess            0      0.00%    100.00% # attempts to use FU when none available
system.switch_cpus1.iq.fu_full::InstPrefetch            0      0.00%    100.00% # attempts to use FU when none available
system.switch_cpus1.iq.FU_type_0::No_OpClass            0      0.00%      0.00% # Type of FU issued
system.switch_cpus1.iq.FU_type_0::IntAlu       881626     77.93%     77.93% # Type of FU issued
system.switch_cpus1.iq.FU_type_0::IntMult         8181      0.72%     78.66% # Type of FU issued
system.switch_cpus1.iq.FU_type_0::IntDiv            0      0.00%     78.66% # Type of FU issued
system.switch_cpus1.iq.FU_type_0::FloatAdd            0      0.00%     78.66% # Type of FU issued
system.switch_cpus1.iq.FU_type_0::FloatCmp            0      0.00%     78.66% # Type of FU issued
system.switch_cpus1.iq.FU_type_0::FloatCvt            0      0.00%     78.66% # Type of FU issued
system.switch_cpus1.iq.FU_type_0::FloatMult            0      0.00%     78.66% # Type of FU issued
system.switch_cpus1.iq.FU_type_0::FloatDiv            0      0.00%     78.66% # Type of FU issued
system.switch_cpus1.iq.FU_type_0::FloatSqrt            0      0.00%     78.66% # Type of FU issued
system.switch_cpus1.iq.FU_type_0::SimdAdd            0      0.00%     78.66% # Type of FU issued
system.switch_cpus1.iq.FU_type_0::SimdAddAcc            0      0.00%     78.66% # Type of FU issued
system.switch_cpus1.iq.FU_type_0::SimdAlu            0      0.00%     78.66% # Type of FU issued
system.switch_cpus1.iq.FU_type_0::SimdCmp            0      0.00%     78.66% # Type of FU issued
system.switch_cpus1.iq.FU_type_0::SimdCvt            0      0.00%     78.66% # Type of FU issued
system.switch_cpus1.iq.FU_type_0::SimdMisc            0      0.00%     78.66% # Type of FU issued
[...]
system.cpu7.icache.ReadReq_avg_miss_latency::total 940763.756757                       # average ReadReq miss latency
system.cpu7.icache.demand_avg_miss_latency::switch_cpus7.inst 940763.756757                       # average overall miss latency
system.cpu7.icache.demand_avg_miss_latency::total 940763.756757                       # average overall miss latency
system.cpu7.icache.overall_avg_miss_latency::switch_cpus7.inst 940763.756757                       # average overall miss latency
system.cpu7.icache.overall_avg_miss_latency::total 940763.756757                       # average overall miss latency
system.cpu7.icache.blocked_cycles::no_mshrs            0                       # number of cycles access was blocked
system.cpu7.icache.blocked_cycles::no_targets            0                       # number of cycles access was blocked
system.cpu7.icache.blocked::no_mshrs                0                       # number of cycles access was blocked
system.cpu7.icache.blocked::no_targets              0                       # number of cycles access was blocked
system.cpu7.icache.avg_blocked_cycles::no_mshrs          nan                       # average number of cycles each access was blocked
system.cpu7.icache.avg_blocked_cycles::no_targets          nan                       # average number of cycles each access was blocked
system.cpu7.icache.fast_writes                      0                       # number of fast writes performed
system.cpu7.icache.cache_copies                     0                       # number of cache copies performed
system.cpu7.icache.ReadReq_mshr_hits::switch_cpus7.inst           12                       # number of ReadReq MSHR hits
system.cpu7.icache.ReadReq_mshr_hits::total           12                       # number of ReadReq MSHR hits
system.cpu7.icache.demand_mshr_hits::switch_cpus7.inst           12                       # number of demand (read+write) MSHR hits
system.cpu7.icache.demand_mshr_hits::total           12                       # number of demand (read+write) MSHR hits
system.cpu7.icache.overall_mshr_hits::switch_cpus7.inst           12                       # number of overall MSHR hits
system.cpu7.icache.overall_mshr_hits::total           12                       # number of overall MSHR hits
system.cpu7.icache.ReadReq_mshr_misses::switch_cpus7.inst           25                       # number of ReadReq MSHR misses
system.cpu7.icache.ReadReq_mshr_misses::total           25                       # number of ReadReq MSHR misses
system.cpu7.icache.demand_mshr_misses::switch_cpus7.inst           25                       # number of demand (read+write) MSHR misses
system.cpu7.icache.demand_mshr_misses::total           25                       # number of demand (read+write) MSHR misses
system.cpu7.icache.overall_mshr_misses::switch_cpus7.inst           25                       # number of overall MSHR misses
system.cpu7.icache.overall_mshr_misses::total           25                       # number of overall MSHR misses
system.cpu7.icache.ReadReq_mshr_miss_latency::switch_cpus7.inst     22264800                       # number of ReadReq MSHR miss cycles
system.cpu7.icache.ReadReq_mshr_miss_latency::total     22264800                       # number of ReadReq MSHR miss cycles
system.cpu7.icache.demand_mshr_miss_latency::switch_cpus7.inst     22264800                       # number of demand (read+write) MSHR miss cycles
system.cpu7.icache.demand_mshr_miss_latency::total     22264800                       # number of demand (read+write) MSHR miss cycles
system.cpu7.icache.overall_mshr_miss_latency::switch_cpus7.inst     22264800                       # number of overall MSHR miss cycles
system.cpu7.icache.overall_mshr_miss_latency::total     22264800                       # number of overall MSHR miss cycles
system.cpu7.icache.ReadReq_mshr_miss_rate::switch_cpus7.inst     0.000200                       # mshr miss rate for ReadReq accesses
system.cpu7.icache.ReadReq_mshr_miss_rate::total     0.000200                       # mshr miss rate for ReadReq accesses
system.cpu7.icache.demand_mshr_miss_rate::switch_cpus7.inst     0.000200                       # mshr miss rate for demand accesses
system.cpu7.icache.demand_mshr_miss_rate::total     0.000200                       # mshr miss rate for demand accesses
system.cpu7.icache.overall_mshr_miss_rate::switch_cpus7.inst     0.000200                       # mshr miss rate for overall accesses
system.cpu7.icache.overall_mshr_miss_rate::total     0.000200                       # mshr miss rate for overall accesses
system.cpu7.icache.ReadReq_avg_mshr_miss_latency::switch_cpus7.inst       890592                       # average ReadReq mshr miss latency
system.cpu7.icache.ReadReq_avg_mshr_miss_latency::total       890592                       # average ReadReq mshr miss latency
system.cpu7.icache.demand_avg_mshr_miss_latency::switch_cpus7.inst       890592                       # average overall mshr miss latency
system.cpu7.icache.demand_avg_mshr_miss_latency::total       890592                       # average overall mshr miss latency
system.cpu7.icache.overall_avg_mshr_miss_latency::switch_cpus7.inst       890592                       # average overall mshr miss latency
system.cpu7.icache.overall_avg_mshr_miss_latency::total       890592                       # average overall mshr miss latency
system.cpu7.icache.no_allocate_misses               0                       # Number of misses that were no-allocate
system.cpu7.dcache.replacements                   576                       # number of replacements
system.cpu7.dcache.tagsinuse                      256                       # Cycle average of tags in use
system.cpu7.dcache.total_refs               118203668                       # Total number of references to valid blocks.
system.cpu7.dcache.sampled_refs                   832                       # Sample count of references to valid blocks.
system.cpu7.dcache.avg_refs              142071.716346                       # Average number of references to valid blocks.
system.cpu7.dcache.warmup_cycle                     0                       # Cycle when the warmup percentage was hit.
system.cpu7.dcache.occ_blocks::switch_cpus7.data   183.438873                       # Average occupied blocks per requestor
system.cpu7.dcache.occ_blocks::cpu7.data    72.561127                       # Average occupied blocks per requestor
system.cpu7.dcache.occ_percent::switch_cpus7.data     0.716558                       # Average percentage of cache occupancy
system.cpu7.dcache.occ_percent::cpu7.data     0.283442                       # Average percentage of cache occupancy
system.cpu7.dcache.occ_percent::total               1                       # Average percentage of cache occupancy
system.cpu7.dcache.ReadReq_hits::switch_cpus7.data        86919                       # number of ReadReq hits
system.cpu7.dcache.ReadReq_hits::total          86919                       # number of ReadReq hits
system.cpu7.dcache.WriteReq_hits::switch_cpus7.data        72648                       # number of WriteReq hits
system.cpu7.dcache.WriteReq_hits::total         72648                       # number of WriteReq hits
system.cpu7.dcache.LoadLockedReq_hits::switch_cpus7.data          184                       # number of LoadLockedReq hits
system.cpu7.dcache.LoadLockedReq_hits::total          184                       # number of LoadLockedReq hits
system.cpu7.dcache.StoreCondReq_hits::switch_cpus7.data          168                       # number of StoreCondReq hits
system.cpu7.dcache.StoreCondReq_hits::total          168                       # number of StoreCondReq hits
system.cpu7.dcache.demand_hits::switch_cpus7.data       159567                       # number of demand (read+write) hits
system.cpu7.dcache.demand_hits::total          159567                       # number of demand (read+write) hits
system.cpu7.dcache.overall_hits::switch_cpus7.data       159567                       # number of overall hits
system.cpu7.dcache.overall_hits::total         159567                       # number of overall hits
system.cpu7.dcache.ReadReq_misses::switch_cpus7.data         1936                       # number of ReadReq misses
system.cpu7.dcache.ReadReq_misses::total         1936                       # number of ReadReq misses
system.cpu7.dcache.WriteReq_misses::switch_cpus7.data           81                       # number of WriteReq misses
system.cpu7.dcache.WriteReq_misses::total           81                       # number of WriteReq misses
system.cpu7.dcache.demand_misses::switch_cpus7.data         2017                       # number of demand (read+write) misses
system.cpu7.dcache.demand_misses::total          2017                       # number of demand (read+write) misses
system.cpu7.dcache.overall_misses::switch_cpus7.data         2017                       # number of overall misses
system.cpu7.dcache.overall_misses::total         2017                       # number of overall misses
system.cpu7.dcache.ReadReq_miss_latency::switch_cpus7.data    413961523                       # number of ReadReq miss cycles
system.cpu7.dcache.ReadReq_miss_latency::total    413961523                       # number of ReadReq miss cycles
system.cpu7.dcache.WriteReq_miss_latency::switch_cpus7.data     39129842                       # number of WriteReq miss cycles
system.cpu7.dcache.WriteReq_miss_latency::total     39129842                       # number of WriteReq miss cycles
system.cpu7.dcache.demand_miss_latency::switch_cpus7.data    453091365                       # number of demand (read+write) miss cycles
system.cpu7.dcache.demand_miss_latency::total    453091365                       # number of demand (read+write) miss cycles
system.cpu7.dcache.overall_miss_latency::switch_cpus7.data    453091365                       # number of overall miss cycles
system.cpu7.dcache.overall_miss_latency::total    453091365                       # number of overall miss cycles
system.cpu7.dcache.ReadReq_accesses::switch_cpus7.data        88855                       # number of ReadReq accesses(hits+misses)
system.cpu7.dcache.ReadReq_accesses::total        88855                       # number of ReadReq accesses(hits+misses)
system.cpu7.dcache.WriteReq_accesses::switch_cpus7.data        72729                       # number of WriteReq accesses(hits+misses)
system.cpu7.dcache.WriteReq_accesses::total        72729                       # number of WriteReq accesses(hits+misses)
system.cpu7.dcache.LoadLockedReq_accesses::switch_cpus7.data          184                       # number of LoadLockedReq accesses(hits+misses)
system.cpu7.dcache.LoadLockedReq_accesses::total          184                       # number of LoadLockedReq accesses(hits+misses)
system.cpu7.dcache.StoreCondReq_accesses::switch_cpus7.data          168                       # number of StoreCondReq accesses(hits+misses)
system.cpu7.dcache.StoreCondReq_accesses::total          168                       # number of StoreCondReq accesses(hits+misses)
system.cpu7.dcache.demand_accesses::switch_cpus7.data       161584                       # number of demand (read+write) accesses
system.cpu7.dcache.demand_accesses::total       161584                       # number of demand (read+write) accesses
system.cpu7.dcache.overall_accesses::switch_cpus7.data       161584                       # number of overall (read+write) accesses
system.cpu7.dcache.overall_accesses::total       161584                       # number of overall (read+write) accesses
system.cpu7.dcache.ReadReq_miss_rate::switch_cpus7.data     0.021788                       # miss rate for ReadReq accesses
system.cpu7.dcache.ReadReq_miss_rate::total     0.021788                       # miss rate for ReadReq accesses
system.cpu7.dcache.WriteReq_miss_rate::switch_cpus7.data     0.001114                       # miss rate for WriteReq accesses
system.cpu7.dcache.WriteReq_miss_rate::total     0.001114                       # miss rate for WriteReq accesses
system.cpu7.dcache.demand_miss_rate::switch_cpus7.data     0.012483                       # miss rate for demand accesses
system.cpu7.dcache.demand_miss_rate::total     0.012483                       # miss rate for demand accesses
system.cpu7.dcache.overall_miss_rate::switch_cpus7.data     0.012483                       # miss rate for overall accesses
system.cpu7.dcache.overall_miss_rate::total     0.012483                       # miss rate for overall accesses
system.cpu7.dcache.ReadReq_avg_miss_latency::switch_cpus7.data 213823.100723                       # average ReadReq miss latency
system.cpu7.dcache.ReadReq_avg_miss_latency::total 213823.100723                       # average ReadReq miss latency
system.cpu7.dcache.WriteReq_avg_miss_latency::switch_cpus7.data 483084.469136                       # average WriteReq miss latency
system.cpu7.dcache.WriteReq_avg_miss_latency::total 483084.469136                       # average WriteReq miss latency
system.cpu7.dcache.demand_avg_miss_latency::switch_cpus7.data 224636.274170                       # average overall miss latency
system.cpu7.dcache.demand_avg_miss_latency::total 224636.274170                       # average overall miss latency
system.cpu7.dcache.overall_avg_miss_latency::switch_cpus7.data 224636.274170                       # average overall miss latency
system.cpu7.dcache.overall_avg_miss_latency::total 224636.274170                       # average overall miss latency
system.cpu7.dcache.blocked_cycles::no_mshrs            0                       # number of cycles access was blocked
system.cpu7.dcache.blocked_cycles::no_targets        92978                       # number of cycles access was blocked
system.cpu7.dcache.blocked::no_mshrs                0                       # number of cycles access was blocked
system.cpu7.dcache.blocked::no_targets              1                       # number of cycles access was blocked
system.cpu7.dcache.avg_blocked_cycles::no_mshrs          nan                       # average number of cycles each access was blocked
system.cpu7.dcache.avg_blocked_cycles::no_targets        92978                       # average number of cycles each access was blocked
system.cpu7.dcache.fast_writes                      0                       # number of fast writes performed
system.cpu7.dcache.cache_copies                     0                       # number of cache copies performed
system.cpu7.dcache.writebacks::writebacks          249                       # number of writebacks
system.cpu7.dcache.writebacks::total              249                       # number of writebacks
system.cpu7.dcache.ReadReq_mshr_hits::switch_cpus7.data         1363                       # number of ReadReq MSHR hits
system.cpu7.dcache.ReadReq_mshr_hits::total         1363                       # number of ReadReq MSHR hits
system.cpu7.dcache.WriteReq_mshr_hits::switch_cpus7.data           78                       # number of WriteReq MSHR hits
system.cpu7.dcache.WriteReq_mshr_hits::total           78                       # number of WriteReq MSHR hits
system.cpu7.dcache.demand_mshr_hits::switch_cpus7.data         1441                       # number of demand (read+write) MSHR hits
system.cpu7.dcache.demand_mshr_hits::total         1441                       # number of demand (read+write) MSHR hits
system.cpu7.dcache.overall_mshr_hits::switch_cpus7.data         1441                       # number of overall MSHR hits
system.cpu7.dcache.overall_mshr_hits::total         1441                       # number of overall MSHR hits
system.cpu7.dcache.ReadReq_mshr_misses::switch_cpus7.data          573                       # number of ReadReq MSHR misses
system.cpu7.dcache.ReadReq_mshr_misses::total          573                       # number of ReadReq MSHR misses
system.cpu7.dcache.WriteReq_mshr_misses::switch_cpus7.data            3                       # number of WriteReq MSHR misses
system.cpu7.dcache.WriteReq_mshr_misses::total            3                       # number of WriteReq MSHR misses
system.cpu7.dcache.demand_mshr_misses::switch_cpus7.data          576                       # number of demand (read+write) MSHR misses
system.cpu7.dcache.demand_mshr_misses::total          576                       # number of demand (read+write) MSHR misses
system.cpu7.dcache.overall_mshr_misses::switch_cpus7.data          576                       # number of overall MSHR misses
system.cpu7.dcache.overall_mshr_misses::total          576                       # number of overall MSHR misses
system.cpu7.dcache.ReadReq_mshr_miss_latency::switch_cpus7.data     95723808                       # number of ReadReq MSHR miss cycles
system.cpu7.dcache.ReadReq_mshr_miss_latency::total     95723808                       # number of ReadReq MSHR miss cycles
system.cpu7.dcache.WriteReq_mshr_miss_latency::switch_cpus7.data       192300                       # number of WriteReq MSHR miss cycles
system.cpu7.dcache.WriteReq_mshr_miss_latency::total       192300                       # number of WriteReq MSHR miss cycles
system.cpu7.dcache.demand_mshr_miss_latency::switch_cpus7.data     95916108                       # number of demand (read+write) MSHR miss cycles
system.cpu7.dcache.demand_mshr_miss_latency::total     95916108                       # number of demand (read+write) MSHR miss cycles
system.cpu7.dcache.overall_mshr_miss_latency::switch_cpus7.data     95916108                       # number of overall MSHR miss cycles
system.cpu7.dcache.overall_mshr_miss_latency::total     95916108                       # number of overall MSHR miss cycles
system.cpu7.dcache.ReadReq_mshr_miss_rate::switch_cpus7.data     0.006449                       # mshr miss rate for ReadReq accesses
system.cpu7.dcache.ReadReq_mshr_miss_rate::total     0.006449                       # mshr miss rate for ReadReq accesses
system.cpu7.dcache.WriteReq_mshr_miss_rate::switch_cpus7.data     0.000041                       # mshr miss rate for WriteReq accesses
system.cpu7.dcache.WriteReq_mshr_miss_rate::total     0.000041                       # mshr miss rate for WriteReq accesses
system.cpu7.dcache.demand_mshr_miss_rate::switch_cpus7.data     0.003565                       # mshr miss rate for demand accesses
system.cpu7.dcache.demand_mshr_miss_rate::total     0.003565                       # mshr miss rate for demand accesses
system.cpu7.dcache.overall_mshr_miss_rate::switch_cpus7.data     0.003565                       # mshr miss rate for overall accesses
system.cpu7.dcache.overall_mshr_miss_rate::total     0.003565                       # mshr miss rate for overall accesses
system.cpu7.dcache.ReadReq_avg_mshr_miss_latency::switch_cpus7.data 167057.256545                       # average ReadReq mshr miss latency
system.cpu7.dcache.ReadReq_avg_mshr_miss_latency::total 167057.256545                       # average ReadReq mshr miss latency
system.cpu7.dcache.WriteReq_avg_mshr_miss_latency::switch_cpus7.data        64100                       # average WriteReq mshr miss latency
system.cpu7.dcache.WriteReq_avg_mshr_miss_latency::total        64100                       # average WriteReq mshr miss latency
system.cpu7.dcache.demand_avg_mshr_miss_latency::switch_cpus7.data 166521.020833                       # average overall mshr miss latency
system.cpu7.dcache.demand_avg_mshr_miss_latency::total 166521.020833                       # average overall mshr miss latency
system.cpu7.dcache.overall_avg_mshr_miss_latency::switch_cpus7.data 166521.020833                       # average overall mshr miss latency
system.cpu7.dcache.overall_avg_mshr_miss_latency::total 166521.020833                       # average overall mshr miss latency
system.cpu7.dcache.no_allocate_misses               0                       # Number of misses that were no-allocate

---------- End Simulation Statistics   ----------
