
---------- Begin Simulation Statistics ----------
sim_seconds                                  0.117133                       # Number of seconds simulated
sim_ticks                                117133330509                       # Number of ticks simulated
final_tick                               686964623643                       # Number of ticks from beginning of simulation (restored from checkpoints and never reset)
sim_freq                                 1000000000000                       # Frequency of simulated ticks
host_inst_rate                                 202720                       # Simulator instruction rate (inst/s)
host_op_rate                                   260870                       # Simulator op (including micro ops) rate (op/s)
host_tick_rate                                6798970                       # Simulator tick rate (ticks/s)
host_mem_usage                               16907520                       # Number of bytes of host memory used
host_seconds                                 17228.10                       # Real time elapsed on the host
sim_insts                                  3492488542                       # Number of instructions simulated
sim_ops                                    4494298534                       # Number of ops (including micro ops) simulated
system.physmem.bytes_read::switch_cpus0.inst         1792                       # Number of bytes read from this memory
system.physmem.bytes_read::switch_cpus0.data      1679360                       # Number of bytes read from this memory
system.physmem.bytes_read::switch_cpus1.inst         1664                       # Number of bytes read from this memory
system.physmem.bytes_read::switch_cpus1.data      2492544                       # Number of bytes read from this memory
system.physmem.bytes_read::switch_cpus2.inst         1408                       # Number of bytes read from this memory
system.physmem.bytes_read::switch_cpus2.data      2187264                       # Number of bytes read from this memory
system.physmem.bytes_read::total              6364032                       # Number of bytes read from this memory
system.physmem.bytes_inst_read::switch_cpus0.inst         1792                       # Number of instructions bytes read from this memory
system.physmem.bytes_inst_read::switch_cpus1.inst         1664                       # Number of instructions bytes read from this memory
system.physmem.bytes_inst_read::switch_cpus2.inst         1408                       # Number of instructions bytes read from this memory
system.physmem.bytes_inst_read::total            4864                       # Number of instructions bytes read from this memory
system.physmem.bytes_written::writebacks      1343232                       # Number of bytes written to this memory
system.physmem.bytes_written::total           1343232                       # Number of bytes written to this memory
system.physmem.num_reads::switch_cpus0.inst           14                       # Number of read requests responded to by this memory
system.physmem.num_reads::switch_cpus0.data        13120                       # Number of read requests responded to by this memory
system.physmem.num_reads::switch_cpus1.inst           13                       # Number of read requests responded to by this memory
system.physmem.num_reads::switch_cpus1.data        19473                       # Number of read requests responded to by this memory
system.physmem.num_reads::switch_cpus2.inst           11                       # Number of read requests responded to by this memory
system.physmem.num_reads::switch_cpus2.data        17088                       # Number of read requests responded to by this memory
system.physmem.num_reads::total                 49719                       # Number of read requests responded to by this memory
system.physmem.num_writes::writebacks           10494                       # Number of write requests responded to by this memory
system.physmem.num_writes::functional               0                       # Number of write requests responded to by this memory
system.physmem.num_writes::interrupt                0                       # Number of write requests responded to by this memory
system.physmem.num_writes::switch_cpus0.dtb.walker            0                       # Number of write requests responded to by this memory
system.physmem.num_writes::switch_cpus0.itb.walker            0                       # Number of write requests responded to by this memory
system.physmem.num_writes::switch_cpus0.inst            0                       # Number of write requests responded to by this memory
system.physmem.num_writes::switch_cpus0.data            0                       # Number of write requests responded to by this memory
system.physmem.num_writes::switch_cpus1.dtb.walker            0                       # Number of write requests responded to by this memory
system.physmem.num_writes::switch_cpus1.itb.walker            0                       # Number of write requests responded to by this memory
system.physmem.num_writes::switch_cpus1.inst            0                       # Number of write requests responded to by this memory
system.physmem.num_writes::switch_cpus1.data            0                       # Number of write requests responded to by this memory
system.physmem.num_writes::switch_cpus2.dtb.walker            0                       # Number of write requests responded to by this memory
system.physmem.num_writes::switch_cpus2.itb.walker            0                       # Number of write requests responded to by this memory
system.physmem.num_writes::switch_cpus2.inst            0                       # Number of write requests responded to by this memory
system.physmem.num_writes::switch_cpus2.data            0                       # Number of write requests responded to by this memory
system.physmem.num_writes::cpu0.dtb.walker            0                       # Number of write requests responded to by this memory
system.physmem.num_writes::cpu0.itb.walker            0                       # Number of write requests responded to by this memory
system.physmem.num_writes::cpu0.inst                0                       # Number of write requests responded to by this memory
system.physmem.num_writes::cpu0.data                0                       # Number of write requests responded to by this memory
system.physmem.num_writes::cpu1.dtb.walker            0                       # Number of write requests responded to by this memory
system.physmem.num_writes::cpu1.itb.walker            0                       # Number of write requests responded to by this memory
system.physmem.num_writes::cpu1.inst                0                       # Number of write requests responded to by this memory
system.physmem.num_writes::cpu1.data                0                       # Number of write requests responded to by this memory
system.physmem.num_writes::cpu2.dtb.walker            0                       # Number of write requests responded to by this memory
system.physmem.num_writes::cpu2.itb.walker            0                       # Number of write requests responded to by this memory
system.physmem.num_writes::cpu2.inst                0                       # Number of write requests responded to by this memory
system.physmem.num_writes::cpu2.data                0                       # Number of write requests responded to by this memory
system.physmem.num_writes::total                10494                       # Number of write requests responded to by this memory
system.physmem.bw_read::switch_cpus0.inst        15299                       # Total read bandwidth from this memory (bytes/s)
system.physmem.bw_read::switch_cpus0.data     14337166                       # Total read bandwidth from this memory (bytes/s)
system.physmem.bw_read::switch_cpus1.inst        14206                       # Total read bandwidth from this memory (bytes/s)
system.physmem.bw_read::switch_cpus1.data     21279545                       # Total read bandwidth from this memory (bytes/s)
system.physmem.bw_read::switch_cpus2.inst        12020                       # Total read bandwidth from this memory (bytes/s)
system.physmem.bw_read::switch_cpus2.data     18673284                       # Total read bandwidth from this memory (bytes/s)
system.physmem.bw_read::total                54331521                       # Total read bandwidth from this memory (bytes/s)
system.physmem.bw_inst_read::switch_cpus0.inst        15299                       # Instruction read bandwidth from this memory (bytes/s)
system.physmem.bw_inst_read::switch_cpus1.inst        14206                       # Instruction read bandwidth from this memory (bytes/s)
system.physmem.bw_inst_read::switch_cpus2.inst        12020                       # Instruction read bandwidth from this memory (bytes/s)
system.physmem.bw_inst_read::total              41525                       # Instruction read bandwidth from this memory (bytes/s)
system.physmem.bw_write::writebacks          11467547                       # Write bandwidth from this memory (bytes/s)
system.physmem.bw_write::total               11467547                       # Write bandwidth from this memory (bytes/s)
system.physmem.bw_total::writebacks          11467547                       # Total bandwidth to/from this memory (bytes/s)
system.physmem.bw_total::switch_cpus0.inst        15299                       # Total bandwidth to/from this memory (bytes/s)
system.physmem.bw_total::switch_cpus0.data     14337166                       # Total bandwidth to/from this memory (bytes/s)
system.physmem.bw_total::switch_cpus1.inst        14206                       # Total bandwidth to/from this memory (bytes/s)
system.physmem.bw_total::switch_cpus1.data     21279545                       # Total bandwidth to/from this memory (bytes/s)
system.physmem.bw_total::switch_cpus2.inst        12020                       # Total bandwidth to/from this memory (bytes/s)
system.physmem.bw_total::switch_cpus2.data     18673284                       # Total bandwidth to/from this memory (bytes/s)
system.physmem.bw_total::total               65799068                       # Total bandwidth to/from this memory (bytes/s)
system.switch_cpus0.dtb.inst_hits                   0                       # ITB inst hits
system.switch_cpus0.dtb.inst_misses                 0                       # ITB inst misses
system.switch_cpus0.dtb.read_hits                   0                       # DTB read hits
system.switch_cpus0.dtb.read_misses                 0                       # DTB read misses
system.switch_cpus0.dtb.write_hits                  0                       # DTB write hits
system.switch_cpus0.dtb.write_misses                0                       # DTB write misses
system.switch_cpus0.dtb.flush_tlb                   0                       # Number of times complete TLB was flushed
system.switch_cpus0.dtb.flush_tlb_mva               0                       # Number of times TLB was flushed by MVA
system.switch_cpus0.dtb.flush_tlb_mva_asid            0                       # Number of times TLB was flushed by MVA & ASID
system.switch_cpus0.dtb.flush_tlb_asid              0                       # Number of times TLB was flushed by ASID
system.switch_cpus0.dtb.flush_entries               0                       # Number of entries that have been flushed from TLB
system.switch_cpus0.dtb.align_faults                0                       # Number of TLB faults due to alignment restrictions
system.switch_cpus0.dtb.prefetch_faults             0                       # Number of TLB faults due to prefetch
system.switch_cpus0.dtb.domain_faults               0                       # Number of TLB faults due to domain restrictions
system.switch_cpus0.dtb.perms_faults                0                       # Number of TLB faults due to permissions restrictions
system.switch_cpus0.dtb.read_accesses               0                       # DTB read accesses
system.switch_cpus0.dtb.write_accesses              0                       # DTB write accesses
system.switch_cpus0.dtb.inst_accesses               0                       # ITB inst accesses
system.switch_cpus0.dtb.hits                        0                       # DTB hits
system.switch_cpus0.dtb.misses                      0                       # DTB misses
system.switch_cpus0.dtb.accesses                    0                       # DTB accesses
system.switch_cpus0.itb.inst_hits                   0                       # ITB inst hits
system.switch_cpus0.itb.inst_misses                 0                       # ITB inst misses
system.switch_cpus0.itb.read_hits                   0                       # DTB read hits
system.switch_cpus0.itb.read_misses                 0                       # DTB read misses
system.switch_cpus0.itb.write_hits                  0                       # DTB write hits
system.switch_cpus0.itb.write_misses                0                       # DTB write misses
system.switch_cpus0.itb.flush_tlb                   0                       # Number of times complete TLB was flushed
system.switch_cpus0.itb.flush_tlb_mva               0                       # Number of times TLB was flushed by MVA
system.switch_cpus0.itb.flush_tlb_mva_asid            0                       # Number of times TLB was flushed by MVA & ASID
system.switch_cpus0.itb.flush_tlb_asid              0                       # Number of times TLB was flushed by ASID
system.switch_cpus0.itb.flush_entries               0                       # Number of entries that have been flushed from TLB
system.switch_cpus0.itb.align_faults                0                       # Number of TLB faults due to alignment restrictions
system.switch_cpus0.itb.prefetch_faults             0                       # Number of TLB faults due to prefetch
system.switch_cpus0.itb.domain_faults               0                       # Number of TLB faults due to domain restrictions
system.switch_cpus0.itb.perms_faults                0                       # Number of TLB faults due to permissions restrictions
system.switch_cpus0.itb.read_accesses               0                       # DTB read accesses
system.switch_cpus0.itb.write_accesses              0                       # DTB write accesses
system.switch_cpus0.itb.inst_accesses               0                       # ITB inst accesses
system.switch_cpus0.itb.hits                        0                       # DTB hits
system.switch_cpus0.itb.misses                      0                       # DTB misses
system.switch_cpus0.itb.accesses                    0                       # DTB accesses
system.cpu0.workload.num_syscalls                   0                       # Number of system calls
system.switch_cpus0.numCycles               280895278                       # number of cpu cycles simulated
system.switch_cpus0.numWorkItemsStarted             0                       # number of work items this cpu started
system.switch_cpus0.numWorkItemsCompleted            0                       # number of work items this cpu completed
system.switch_cpus0.BPredUnit.lookups        21112402                       # Number of BP lookups
system.switch_cpus0.BPredUnit.condPredicted     18750896                       # Number of conditional branches predicted
system.switch_cpus0.BPredUnit.condIncorrect      1830125                       # Number of conditional branches incorrect
system.switch_cpus0.BPredUnit.BTBLookups     11144015                       # Number of BTB lookups
system.switch_cpus0.BPredUnit.BTBHits        10816019                       # Number of BTB hits
system.switch_cpus0.BPredUnit.BTBCorrect            0                       # Number of correct BTB predictions (this stat may not work properly.
system.switch_cpus0.BPredUnit.usedRAS         1339666                       # Number of times the RAS was used to get a target.
system.switch_cpus0.BPredUnit.RASInCorrect        52576                       # Number of incorrect RAS predictions.
system.switch_cpus0.fetch.icacheStallCycles    227895496                       # Number of cycles fetch is stalled on an Icache miss
system.switch_cpus0.fetch.Insts             119534231                       # Number of instructions fetch has processed
system.switch_cpus0.fetch.Branches           21112402                       # Number of branches that fetch encountered
system.switch_cpus0.fetch.predictedBranches     12155685                       # Number of branches that fetch has predicted taken
system.switch_cpus0.fetch.Cycles             24166358                       # Number of cycles fetch has run and was not squashing or blocked
system.switch_cpus0.fetch.SquashCycles        5587694                       # Number of cycles fetch has spent squashing
system.switch_cpus0.fetch.BlockedCycles       2218165                       # Number of cycles fetch has spent blocked
system.switch_cpus0.fetch.PendingTrapStallCycles           23                       # Number of stall cycles due to pending traps
system.switch_cpus0.fetch.CacheLines         13947816                       # Number of cache lines fetched
system.switch_cpus0.fetch.IcacheSquashes      1823797                       # Number of outstanding Icache misses that were squashed
system.switch_cpus0.fetch.rateDist::samples    258028141                       # Number of instructions fetched each cycle (Total)
system.switch_cpus0.fetch.rateDist::mean     0.521772                       # Number of instructions fetched each cycle (Total)
system.switch_cpus0.fetch.rateDist::stdev     1.771196                       # Number of instructions fetched each cycle (Total)
system.switch_cpus0.fetch.rateDist::underflows            0      0.00%      0.00% # Number of instructions fetched each cycle (Total)
system.switch_cpus0.fetch.rateDist::0       233861783     90.63%     90.63% # Number of instructions fetched each cycle (Total)
system.switch_cpus0.fetch.rateDist::1         1097306      0.43%     91.06% # Number of instructions fetched each cycle (Total)
system.switch_cpus0.fetch.rateDist::2         2038464      0.79%     91.85% # Number of instructions fetched each cycle (Total)
system.switch_cpus0.fetch.rateDist::3         1765255      0.68%     92.53% # Number of instructions fetched each cycle (Total)
system.switch_cpus0.fetch.rateDist::4         3575555      1.39%     93.92% # Number of instructions fetched each cycle (Total)
system.switch_cpus0.fetch.rateDist::5         4336010      1.68%     95.60% # Number of instructions fetched each cycle (Total)
system.switch_cpus0.fetch.rateDist::6         1042884      0.40%     96.00% # Number of instructions fetched each cycle (Total)
system.switch_cpus0.fetch.rateDist::7          564772      0.22%     96.22% # Number of instructions fetched each cycle (Total)
system.switch_cpus0.fetch.rateDist::8         9746112      3.78%    100.00% # Number of instructions fetched each cycle (Total)
system.switch_cpus0.fetch.rateDist::overflows            0      0.00%    100.00% # Number of instructions fetched each cycle (Total)
system.switch_cpus0.fetch.rateDist::min_value            0                       # Number of instructions fetched each cycle (Total)
system.switch_cpus0.fetch.rateDist::max_value            8                       # Number of instructions fetched each cycle (Total)
system.switch_cpus0.fetch.rateDist::total    258028141                       # Number of instructions fetched each cycle (Total)
system.switch_cpus0.fetch.branchRate         0.075161                       # Number of branch fetches per cycle
system.switch_cpus0.fetch.rate               0.425547                       # Number of inst fetches per cycle
system.switch_cpus0.decode.IdleCycles       226236135                       # Number of cycles decode is idle
system.switch_cpus0.decode.BlockedCycles      3894829                       # Number of cycles decode is blocked
system.switch_cpus0.decode.RunCycles         24128794                       # Number of cycles decode is running
system.switch_cpus0.decode.UnblockCycles        25115                       # Number of cycles decode is unblocking
system.switch_cpus0.decode.SquashCycles       3743267                       # Number of cycles decode is squashing
system.switch_cpus0.decode.BranchResolved      2059196                       # Number of times decode resolved a branch
system.switch_cpus0.decode.BranchMispred         4832                       # Number of times decode detected a branch misprediction
system.switch_cpus0.decode.DecodedInsts     134554603                       # Number of instructions handled by decode
system.switch_cpus0.decode.SquashedInsts         1320                       # Number of squashed instructions handled by decode
system.switch_cpus0.rename.SquashCycles       3743267                       # Number of cycles rename is squashing
system.switch_cpus0.rename.IdleCycles       226506879                       # Number of cycles rename is idle
system.switch_cpus0.rename.BlockCycles        1819496                       # Number of cycles rename is blocking
system.switch_cpus0.rename.serializeStallCycles      1261478                       # count of cycles rename stalled for serializing inst
system.switch_cpus0.rename.RunCycles         23872695                       # Number of cycles rename is running
system.switch_cpus0.rename.UnblockCycles       824324                       # Number of cycles rename is unblocking
system.switch_cpus0.rename.RenamedInsts     134443089                       # Number of instructions processed by rename
system.switch_cpus0.rename.ROBFullEvents            6                       # Number of times rename has blocked due to ROB full
system.switch_cpus0.rename.IQFullEvents         88300                       # Number of times rename has blocked due to IQ full
system.switch_cpus0.rename.LSQFullEvents       506586                       # Number of times rename has blocked due to LSQ full
system.switch_cpus0.rename.RenamedOperands    177475146                       # Number of destination operands rename has renamed
system.switch_cpus0.rename.RenameLookups    607841907                       # Number of register rename lookups that rename has made
system.switch_cpus0.rename.int_rename_lookups    607841907                       # Number of integer rename lookups
system.switch_cpus0.rename.CommittedMaps    146711191                       # Number of HB maps that are committed
system.switch_cpus0.rename.UndoneMaps        30763947                       # Number of HB maps that are undone due to squashing
system.switch_cpus0.rename.serializingInsts        18452                       # count of serializing insts renamed
system.switch_cpus0.rename.tempSerializingInsts         9232                       # count of temporary serializing insts renamed
system.switch_cpus0.rename.skidInsts          2567212                       # count of insts added to the skid buffer
system.switch_cpus0.memDep0.insertedLoads     23434801                       # Number of loads inserted to the mem dependence unit.
system.switch_cpus0.memDep0.insertedStores      4138109                       # Number of stores inserted to the mem dependence unit.
system.switch_cpus0.memDep0.conflictingLoads        74330                       # Number of conflicting loads.
system.switch_cpus0.memDep0.conflictingStores       923789                       # Number of conflicting stores.
system.switch_cpus0.iq.iqInstsAdded         133940869                       # Number of instructions added to the IQ (excludes non-spec)
system.switch_cpus0.iq.iqNonSpecInstsAdded        18452                       # Number of non-speculative instructions added to the IQ
system.switch_cpus0.iq.iqInstsIssued        127210794                       # Number of instructions issued
system.switch_cpus0.iq.iqSquashedInstsIssued        79897                       # Number of squashed instructions issued
system.switch_cpus0.iq.iqSquashedInstsExamined     20235104                       # Number of squashed instructions iterated over during squash; mainly for profiling
system.switch_cpus0.iq.iqSquashedOperandsExamined     42505695                       # Number of squashed operands that are examined and possibly removed from graph
system.switch_cpus0.iq.iqSquashedNonSpecRemoved           12                       # Number of squashed non-spec instructions that were removed
system.switch_cpus0.iq.issued_per_cycle::samples    258028141                       # Number of insts issued each cycle
system.switch_cpus0.iq.issued_per_cycle::mean     0.493011                       # Number of insts issued each cycle
system.switch_cpus0.iq.issued_per_cycle::stdev     1.176055                       # Number of insts issued each cycle
system.switch_cpus0.iq.issued_per_cycle::underflows            0      0.00%      0.00% # Number of insts issued each cycle
system.switch_cpus0.iq.issued_per_cycle::0    203588438     78.90%     78.90% # Number of insts issued each cycle
system.switch_cpus0.iq.issued_per_cycle::1     22825022      8.85%     87.75% # Number of insts issued each cycle
system.switch_cpus0.iq.issued_per_cycle::2     11702593      4.54%     92.28% # Number of insts issued each cycle
system.switch_cpus0.iq.issued_per_cycle::3      6738464      2.61%     94.89% # Number of insts issued each cycle
system.switch_cpus0.iq.issued_per_cycle::4      7503040      2.91%     97.80% # Number of insts issued each cycle
system.switch_cpus0.iq.issued_per_cycle::5      3753985      1.45%     99.26% # Number of insts issued each cycle
system.switch_cpus0.iq.issued_per_cycle::6      1499749      0.58%     99.84% # Number of insts issued each cycle
system.switch_cpus0.iq.issued_per_cycle::7       350185      0.14%     99.97% # Number of insts issued each cycle
system.switch_cpus0.iq.issued_per_cycle::8        66665      0.03%    100.00% # Number of insts issued each cycle
system.switch_cpus0.iq.issued_per_cycle::overflows            0      0.00%    100.00% # Number of insts issued each cycle
system.switch_cpus0.iq.issued_per_cycle::min_value            0                       # Number of insts issued each cycle
system.switch_cpus0.iq.issued_per_cycle::max_value            8                       # Number of insts issued each cycle
system.switch_cpus0.iq.issued_per_cycle::total    258028141                       # Number of insts issued each cycle
system.switch_cpus0.iq.fu_full::No_OpClass            0      0.00%      0.00% # attempts to use FU when none available
system.switch_cpus0.iq.fu_full::IntAlu         233538     47.80%     47.80% # attempts to use FU when none available
system.switch_cpus0.iq.fu_full::IntMult             0      0.00%     47.80% # attempts to use FU when none available
system.switch_cpus0.iq.fu_full::IntDiv              0      0.00%     47.80% # attempts to use FU when none available
system.switch_cpus0.iq.fu_full::FloatAdd            0      0.00%     47.80% # attempts to use FU when none available
system.switch_cpus0.iq.fu_full::FloatCmp            0      0.00%     47.80% # attempts to use FU when none available
system.switch_cpus0.iq.fu_full::FloatCvt            0      0.00%     47.80% # attempts to use FU when none available
system.switch_cpus0.iq.fu_full::FloatMult            0      0.00%     47.80% # attempts to use FU when none available
system.switch_cpus0.iq.fu_full::FloatDiv            0      0.00%     47.80% # attempts to use FU when none available
system.switch_cpus0.iq.fu_full::FloatSqrt            0      0.00%     47.80% # attempts to use FU when none available
system.switch_cpus0.iq.fu_full::SimdAdd             0      0.00%     47.80% # attempts to use FU when none available
system.switch_cpus0.iq.fu_full::SimdAddAcc            0      0.00%     47.80% # attempts to use FU when none available
system.switch_cpus0.iq.fu_full::SimdAlu             0      0.00%     47.80% # attempts to use FU when none available
system.switch_cpus0.iq.fu_full::SimdCmp             0      0.00%     47.80% # attempts to use FU when none available
system.switch_cpus0.iq.fu_full::SimdCvt             0      0.00%     47.80% # attempts to use FU when none available
system.switch_cpus0.iq.fu_full::SimdMisc            0      0.00%     47.80% # attempts to use FU when none available
system.switch_cpus0.iq.fu_full::SimdMult            0      0.00%     47.80% # attempts to use FU when none available
system.switch_cpus0.iq.fu_full::SimdMultAcc            0      0.00%     47.80% # attempts to use FU when none available
system.switch_cpus0.iq.fu_full::SimdShift            0      0.00%     47.80% # attempts to use FU when none available
system.switch_cpus0.iq.fu_full::SimdShiftAcc            0      0.00%     47.80% # attempts to use FU when none available
system.switch_cpus0.iq.fu_full::SimdSqrt            0      0.00%     47.80% # attempts to use FU when none available
system.switch_cpus0.iq.fu_full::SimdFloatAdd            0      0.00%     47.80% # attempts to use FU when none available
system.switch_cpus0.iq.fu_full::SimdFloatAlu            0      0.00%     47.80% # attempts to use FU when none available
system.switch_cpus0.iq.fu_full::SimdFloatCmp            0      0.00%     47.80% # attempts to use FU when none available
system.switch_cpus0.iq.fu_full::SimdFloatCvt            0      0.00%     47.80% # attempts to use FU when none available
system.switch_cpus0.iq.fu_full::SimdFloatDiv            0      0.00%     47.80% # attempts to use FU when none available
system.switch_cpus0.iq.fu_full::SimdFloatMisc            0      0.00%     47.80% # attempts to use FU when none available
system.switch_cpus0.iq.fu_full::SimdFloatMult            0      0.00%     47.80% # attempts to use FU when none available
system.switch_cpus0.iq.fu_full::SimdFloatMultAcc            0      0.00%     47.80% # attempts to use FU when none available
system.switch_cpus0.iq.fu_full::SimdFloatSqrt            0      0.00%     47.80% # attempts to use FU when none available
system.switch_cpus0.iq.fu_full::MemRead        180060     36.85%     84.65% # attempts to use FU when none available
system.switch_cpus0.iq.fu_full::MemWrite        74991     15.35%    100.00% # attempts to use FU when none available
system.switch_cpus0.iq.fu_full::IprAccess            0      0.00%    100.00% # attempts to use FU when none available
system.switch_cpus0.iq.fu_full::InstPrefetch            0      0.00%    100.00% # attempts to use FU when none available
system.switch_cpus0.iq.FU_type_0::No_OpClass            0      0.00%      0.00% # Type of FU issued
system.switch_cpus0.iq.FU_type_0::IntAlu     99844615     78.49%     78.49% # Type of FU issued
system.switch_cpus0.iq.FU_type_0::IntMult      1005670      0.79%     79.28% # Type of FU issued
system.switch_cpus0.iq.FU_type_0::IntDiv            0      0.00%     79.28% # Type of FU issued
system.switch_cpus0.iq.FU_type_0::FloatAdd            0      0.00%     79.28% # Type of FU issued
system.switch_cpus0.iq.FU_type_0::FloatCmp            0      0.00%     79.28% # Type of FU issued
system.switch_cpus0.iq.FU_type_0::FloatCvt            0      0.00%     79.28% # Type of FU issued
system.switch_cpus0.iq.FU_type_0::FloatMult            0      0.00%     79.28% # Type of FU issued
system.switch_cpus0.iq.FU_type_0::FloatDiv            0      0.00%     79.28% # Type of FU issued
system.switch_cpus0.iq.FU_type_0::FloatSqrt            0      0.00%     79.28% # Type of FU issued
system.switch_cpus0.iq.FU_type_0::SimdAdd            0      0.00%     79.28% # Type of FU issued
system.switch_cpus0.iq.FU_type_0::SimdAddAcc            0      0.00%     79.28% # Type of FU issued
system.switch_cpus0.iq.FU_type_0::SimdAlu            0      0.00%     79.28% # Type of FU issued
system.switch_cpus0.iq.FU_type_0::SimdCmp            0      0.00%     79.28% # Type of FU issued
system.switch_cpus0.iq.FU_type_0::SimdCvt            0      0.00%     79.28% # Type of FU issued
system.switch_cpus0.iq.FU_type_0::SimdMisc            0      0.00%     79.28% # Type of FU issued
system.switch_cpus0.iq.FU_type_0::SimdMult            0      0.00%     79.28% # Type of FU issued
system.switch_cpus0.iq.FU_type_0::SimdMultAcc            0      0.00%     79.28% # Type of FU issued
system.switch_cpus0.iq.FU_type_0::SimdShift            0      0.00%     79.28% # Type of FU issued
system.switch_cpus0.iq.FU_type_0::SimdShiftAcc            0      0.00%     79.28% # Type of FU issued
system.switch_cpus0.iq.FU_type_0::SimdSqrt            0      0.00%     79.28% # Type of FU issued
system.switch_cpus0.iq.FU_type_0::SimdFloatAdd            0      0.00%     79.28% # Type of FU issued
system.switch_cpus0.iq.FU_type_0::SimdFloatAlu            0      0.00%     79.28% # Type of FU issued
system.switch_cpus0.iq.FU_type_0::SimdFloatCmp            0      0.00%     79.28% # Type of FU issued
system.switch_cpus0.iq.FU_type_0::SimdFloatCvt            0      0.00%     79.28% # Type of FU issued
system.switch_cpus0.iq.FU_type_0::SimdFloatDiv            0      0.00%     79.28% # Type of FU issued
system.switch_cpus0.iq.FU_type_0::SimdFloatMisc         9220      0.01%     79.29% # Type of FU issued
system.switch_cpus0.iq.FU_type_0::SimdFloatMult            0      0.00%     79.29% # Type of FU issued
system.switch_cpus0.iq.FU_type_0::SimdFloatMultAcc            0      0.00%     79.29% # Type of FU issued
system.switch_cpus0.iq.FU_type_0::SimdFloatSqrt            0      0.00%     79.29% # Type of FU issued
system.switch_cpus0.iq.FU_type_0::MemRead     22234102     17.48%     96.76% # Type of FU issued
system.switch_cpus0.iq.FU_type_0::MemWrite      4117187      3.24%    100.00% # Type of FU issued
system.switch_cpus0.iq.FU_type_0::IprAccess            0      0.00%    100.00% # Type of FU issued
system.switch_cpus0.iq.FU_type_0::InstPrefetch            0      0.00%    100.00% # Type of FU issued
system.switch_cpus0.iq.FU_type_0::total     127210794                       # Type of FU issued
system.switch_cpus0.iq.rate                  0.452876                       # Inst issue rate
system.switch_cpus0.iq.fu_busy_cnt             488589                       # FU busy when requested
system.switch_cpus0.iq.fu_busy_rate          0.003841                       # FU busy rate (busy events/executed inst)
system.switch_cpus0.iq.int_inst_queue_reads    513018215                       # Number of integer instruction queue reads
system.switch_cpus0.iq.int_inst_queue_writes    154194723                       # Number of integer instruction queue writes
system.switch_cpus0.iq.int_inst_queue_wakeup_accesses    124255123                       # Number of integer instruction queue wakeup accesses
system.switch_cpus0.iq.fp_inst_queue_reads            0                       # Number of floating instruction queue reads
system.switch_cpus0.iq.fp_inst_queue_writes            0                       # Number of floating instruction queue writes
system.switch_cpus0.iq.fp_inst_queue_wakeup_accesses            0                       # Number of floating instruction queue wakeup accesses
system.switch_cpus0.iq.int_alu_accesses     127699383                       # Number of integer alu accesses
system.switch_cpus0.iq.fp_alu_accesses              0                       # Number of floating point alu accesses
system.switch_cpus0.iew.lsq.thread0.forwLoads       224907                       # Number of loads that had data forwarded from stores
system.switch_cpus0.iew.lsq.thread0.invAddrLoads            0                       # Number of loads ignored due to an invalid address
system.switch_cpus0.iew.lsq.thread0.squashedLoads      3908992                       # Number of loads squashed
system.switch_cpus0.iew.lsq.thread0.ignoredResponses          280                       # Number of memory responses ignored because the instruction is squashed
system.switch_cpus0.iew.lsq.thread0.memOrderViolation          298                       # Number of memory ordering violations
system.switch_cpus0.iew.lsq.thread0.squashedStores       109201                       # Number of stores squashed
system.switch_cpus0.iew.lsq.thread0.invAddrSwpfs            0                       # Number of software prefetches ignored due to an invalid address
system.switch_cpus0.iew.lsq.thread0.blockedLoads            0                       # Number of blocked loads due to partial load-store forwarding
system.switch_cpus0.iew.lsq.thread0.rescheduledLoads            0                       # Number of loads that were rescheduled
system.switch_cpus0.iew.lsq.thread0.cacheBlocked            0                       # Number of times an access to memory failed due to the cache being blocked
system.switch_cpus0.iew.iewIdleCycles               0                       # Number of cycles IEW is idle
system.switch_cpus0.iew.iewSquashCycles       3743267                       # Number of cycles IEW is squashing
system.switch_cpus0.iew.iewBlockCycles        1236244                       # Number of cycles IEW is blocking
system.switch_cpus0.iew.iewUnblockCycles        64713                       # Number of cycles IEW is unblocking
system.switch_cpus0.iew.iewDispatchedInsts    133959322                       # Number of instructions dispatched to IQ
system.switch_cpus0.iew.iewDispSquashedInsts         5934                       # Number of squashed instructions skipped by dispatch
system.switch_cpus0.iew.iewDispLoadInsts     23434801                       # Number of dispatched load instructions
system.switch_cpus0.iew.iewDispStoreInsts      4138109                       # Number of dispatched store instructions
system.switch_cpus0.iew.iewDispNonSpecInsts         9232                       # Number of dispatched non-speculative instructions
system.switch_cpus0.iew.iewIQFullEvents         37209                       # Number of times the IQ has become full, causing a stall
system.switch_cpus0.iew.iewLSQFullEvents          538                       # Number of times the LSQ has become full, causing a stall
system.switch_cpus0.iew.memOrderViolationEvents          298                       # Number of memory order violations
system.switch_cpus0.iew.predictedTakenIncorrect       823807                       # Number of branches that were predicted taken incorrectly
system.switch_cpus0.iew.predictedNotTakenIncorrect      1102383                       # Number of branches that were predicted not taken incorrectly
system.switch_cpus0.iew.branchMispredicts      1926190                       # Number of branch mispredicts detected at execute
system.switch_cpus0.iew.iewExecutedInsts    126091009                       # Number of executed instructions
system.switch_cpus0.iew.iewExecLoadInsts     21959984                       # Number of load instructions executed
system.switch_cpus0.iew.iewExecSquashedInsts      1119785                       # Number of squashed instructions skipped in execute
system.switch_cpus0.iew.exec_swp                    0                       # number of swp insts executed
system.switch_cpus0.iew.exec_nop                    1                       # number of nop insts executed
system.switch_cpus0.iew.exec_refs            26077114                       # number of memory reference insts executed
system.switch_cpus0.iew.exec_branches        19491086                       # Number of branches executed
system.switch_cpus0.iew.exec_stores           4117130                       # Number of stores executed
system.switch_cpus0.iew.exec_rate            0.448890                       # Inst execution rate
system.switch_cpus0.iew.wb_sent             124290250                       # cumulative count of insts sent to commit
system.switch_cpus0.iew.wb_count            124255123                       # cumulative count of insts written-back
system.switch_cpus0.iew.wb_producers         71068733                       # num instructions producing a value
system.switch_cpus0.iew.wb_consumers        163956336                       # num instructions consuming a value
system.switch_cpus0.iew.wb_penalized                0                       # number of instrctions required to write to 'other' IQ
system.switch_cpus0.iew.wb_rate              0.442354                       # insts written-back per cycle
system.switch_cpus0.iew.wb_fanout            0.433461                       # average fanout of values written-back
system.switch_cpus0.iew.wb_penalized_rate            0                       # fraction of instructions written-back that wrote to 'other' IQ
system.switch_cpus0.commit.commitCommittedInsts    100000007                       # The number of committed instructions
system.switch_cpus0.commit.commitCommittedOps    112649212                       # The number of committed instructions
system.switch_cpus0.commit.commitSquashedInsts     21312952                       # The number of squashed insts skipped by commit
system.switch_cpus0.commit.commitNonSpecStalls        18440                       # The number of times commit has been forced to stall to communicate backwards
system.switch_cpus0.commit.branchMispredicts      1834533                       # The number of times a branch was mispredicted
system.switch_cpus0.commit.committed_per_cycle::samples    254284874                       # Number of insts commited each cycle
system.switch_cpus0.commit.committed_per_cycle::mean     0.443004                       # Number of insts commited each cycle
system.switch_cpus0.commit.committed_per_cycle::stdev     1.292858                       # Number of insts commited each cycle
system.switch_cpus0.commit.committed_per_cycle::underflows            0      0.00%      0.00% # Number of insts commited each cycle
system.switch_cpus0.commit.committed_per_cycle::0    212066653     83.40%     83.40% # Number of insts commited each cycle
system.switch_cpus0.commit.committed_per_cycle::1     15997152      6.29%     89.69% # Number of insts commited each cycle
system.switch_cpus0.commit.committed_per_cycle::2     12511112      4.92%     94.61% # Number of insts commited each cycle
system.switch_cpus0.commit.committed_per_cycle::3      2471905      0.97%     95.58% # Number of insts commited each cycle
system.switch_cpus0.commit.committed_per_cycle::4      3114926      1.22%     96.81% # Number of insts commited each cycle
system.switch_cpus0.commit.committed_per_cycle::5      1055267      0.41%     97.22% # Number of insts commited each cycle
system.switch_cpus0.commit.committed_per_cycle::6      4528271      1.78%     99.00% # Number of insts commited each cycle
system.switch_cpus0.commit.committed_per_cycle::7      1008248      0.40%     99.40% # Number of insts commited each cycle
system.switch_cpus0.commit.committed_per_cycle::8      1531340      0.60%    100.00% # Number of insts commited each cycle
system.switch_cpus0.commit.committed_per_cycle::overflows            0      0.00%    100.00% # Number of insts commited each cycle
system.switch_cpus0.commit.committed_per_cycle::min_value            0                       # Number of insts commited each cycle
system.switch_cpus0.commit.committed_per_cycle::max_value            8                       # Number of insts commited each cycle
system.switch_cpus0.commit.committed_per_cycle::total    254284874                       # Number of insts commited each cycle
system.switch_cpus0.commit.committedInsts    100000007                       # Number of instructions committed
system.switch_cpus0.commit.committedOps     112649212                       # Number of ops (including micro ops) committed
system.switch_cpus0.commit.swp_count                0                       # Number of s/w prefetches committed
system.switch_cpus0.commit.refs              23554717                       # Number of memory references committed
system.switch_cpus0.commit.loads             19525809                       # Number of loads committed
system.switch_cpus0.commit.membars               9220                       # Number of memory barriers committed
system.switch_cpus0.commit.branches          17774062                       # Number of branches committed
system.switch_cpus0.commit.fp_insts                 0                       # Number of committed floating point instructions.
system.switch_cpus0.commit.int_insts         97983637                       # Number of committed integer instructions.
system.switch_cpus0.commit.function_calls      1421934                       # Number of function calls committed.
system.switch_cpus0.commit.bw_lim_events      1531340                       # number cycles where commit BW limit reached
system.switch_cpus0.commit.bw_limited               0                       # number of insts not committed due to BW limits
system.switch_cpus0.rob.rob_reads           386715698                       # The number of ROB reads
system.switch_cpus0.rob.rob_writes          271667670                       # The number of ROB writes
system.switch_cpus0.timesIdled                6037041                       # Number of times that the entire CPU went into an idle state and unscheduled itself
system.switch_cpus0.idleCycles               22867137                       # Total number of cycles that the CPU has spent unscheduled due to idling
system.switch_cpus0.committedInsts          100000007                       # Number of Instructions Simulated
system.switch_cpus0.committedOps            112649212                       # Number of Ops (including micro ops) Simulated
system.switch_cpus0.committedInsts_total    100000007                       # Number of Instructions Simulated
system.switch_cpus0.cpi                      2.808953                       # CPI: Cycles Per Instruction
system.switch_cpus0.cpi_total                2.808953                       # CPI: Total CPI of All Threads
system.switch_cpus0.ipc                      0.356005                       # IPC: Instructions Per Cycle
system.switch_cpus0.ipc_total                0.356005                       # IPC: Total IPC of All Threads
system.switch_cpus0.int_regfile_reads       583911376                       # number of integer regfile reads
system.switch_cpus0.int_regfile_writes      162051828                       # number of integer regfile writes
system.switch_cpus0.misc_regfile_reads      142369875                       # number of misc regfile reads
system.switch_cpus0.misc_regfile_writes         18440                       # number of misc regfile writes
system.switch_cpus1.dtb.inst_hits                   0                       # ITB inst hits
system.switch_cpus1.dtb.inst_misses                 0                       # ITB inst misses
system.switch_cpus1.dtb.read_hits                   0                       # DTB read hits
system.switch_cpus1.dtb.read_misses                 0                       # DTB read misses
system.switch_cpus1.dtb.write_hits                  0                       # DTB write hits
system.switch_cpus1.dtb.write_misses                0                       # DTB write misses
system.switch_cpus1.dtb.flush_tlb                   0                       # Number of times complete TLB was flushed
system.switch_cpus1.dtb.flush_tlb_mva               0                       # Number of times TLB was flushed by MVA
system.switch_cpus1.dtb.flush_tlb_mva_asid            0                       # Number of times TLB was flushed by MVA & ASID
system.switch_cpus1.dtb.flush_tlb_asid              0                       # Number of times TLB was flushed by ASID
system.switch_cpus1.dtb.flush_entries               0                       # Number of entries that have been flushed from TLB
system.switch_cpus1.dtb.align_faults                0                       # Number of TLB faults due to alignment restrictions
system.switch_cpus1.dtb.prefetch_faults             0                       # Number of TLB faults due to prefetch
system.switch_cpus1.dtb.domain_faults               0                       # Number of TLB faults due to domain restrictions
system.switch_cpus1.dtb.perms_faults                0                       # Number of TLB faults due to permissions restrictions
system.switch_cpus1.dtb.read_accesses               0                       # DTB read accesses
system.switch_cpus1.dtb.write_accesses              0                       # DTB write accesses
system.switch_cpus1.dtb.inst_accesses               0                       # ITB inst accesses
system.switch_cpus1.dtb.hits                        0                       # DTB hits
system.switch_cpus1.dtb.misses                      0                       # DTB misses
system.switch_cpus1.dtb.accesses                    0                       # DTB accesses
system.switch_cpus1.itb.inst_hits                   0                       # ITB inst hits
system.switch_cpus1.itb.inst_misses                 0                       # ITB inst misses
system.switch_cpus1.itb.read_hits                   0                       # DTB read hits
system.switch_cpus1.itb.read_misses                 0                       # DTB read misses
system.switch_cpus1.itb.write_hits                  0                       # DTB write hits
system.switch_cpus1.itb.write_misses                0                       # DTB write misses
system.switch_cpus1.itb.flush_tlb                   0                       # Number of times complete TLB was flushed
system.switch_cpus1.itb.flush_tlb_mva               0                       # Number of times TLB was flushed by MVA
system.switch_cpus1.itb.flush_tlb_mva_asid            0                       # Number of times TLB was flushed by MVA & ASID
system.switch_cpus1.itb.flush_tlb_asid              0                       # Number of times TLB was flushed by ASID
system.switch_cpus1.itb.flush_entries               0                       # Number of entries that have been flushed from TLB
system.switch_cpus1.itb.align_faults                0                       # Number of TLB faults due to alignment restrictions
system.switch_cpus1.itb.prefetch_faults             0                       # Number of TLB faults due to prefetch
system.switch_cpus1.itb.domain_faults               0                       # Number of TLB faults due to domain restrictions
system.switch_cpus1.itb.perms_faults                0                       # Number of TLB faults due to permissions restrictions
system.switch_cpus1.itb.read_accesses               0                       # DTB read accesses
system.switch_cpus1.itb.write_accesses              0                       # DTB write accesses
system.switch_cpus1.itb.inst_accesses               0                       # ITB inst accesses
system.switch_cpus1.itb.hits                        0                       # DTB hits
system.switch_cpus1.itb.misses                      0                       # DTB misses
system.switch_cpus1.itb.accesses                    0                       # DTB accesses
system.cpu1.workload.num_syscalls                   0                       # Number of system calls
system.switch_cpus1.numCycles               280895278                       # number of cpu cycles simulated
system.switch_cpus1.numWorkItemsStarted             0                       # number of work items this cpu started
system.switch_cpus1.numWorkItemsCompleted            0                       # number of work items this cpu completed
system.switch_cpus1.BPredUnit.lookups        25629820                       # Number of BP lookups
system.switch_cpus1.BPredUnit.condPredicted     20756602                       # Number of conditional branches predicted
system.switch_cpus1.BPredUnit.condIncorrect      2348033                       # Number of conditional branches incorrect
system.switch_cpus1.BPredUnit.BTBLookups     10082468                       # Number of BTB lookups
system.switch_cpus1.BPredUnit.BTBHits         9650434                       # Number of BTB hits
system.switch_cpus1.BPredUnit.BTBCorrect            0                       # Number of correct BTB predictions (this stat may not work properly.
system.switch_cpus1.BPredUnit.usedRAS         2876921                       # Number of times the RAS was used to get a target.
system.switch_cpus1.BPredUnit.RASInCorrect       105924                       # Number of incorrect RAS predictions.
system.switch_cpus1.fetch.icacheStallCycles    216487459                       # Number of cycles fetch is stalled on an Icache miss
system.switch_cpus1.fetch.Insts             142512203                       # Number of instructions fetch has processed
system.switch_cpus1.fetch.Branches           25629820                       # Number of branches that fetch encountered
system.switch_cpus1.fetch.predictedBranches     12527355                       # Number of branches that fetch has predicted taken
system.switch_cpus1.fetch.Cycles             31211929                       # Number of cycles fetch has run and was not squashing or blocked
system.switch_cpus1.fetch.SquashCycles        7219931                       # Number of cycles fetch has spent squashing
system.switch_cpus1.fetch.BlockedCycles       4640543                       # Number of cycles fetch has spent blocked
system.switch_cpus1.fetch.CacheLines         13549298                       # Number of cache lines fetched
system.switch_cpus1.fetch.IcacheSquashes      2347330                       # Number of outstanding Icache misses that were squashed
system.switch_cpus1.fetch.rateDist::samples    257158684                       # Number of instructions fetched each cycle (Total)
system.switch_cpus1.fetch.rateDist::mean     0.681035                       # Number of instructions fetched each cycle (Total)
system.switch_cpus1.fetch.rateDist::stdev     2.054381                       # Number of instructions fetched each cycle (Total)
system.switch_cpus1.fetch.rateDist::underflows            0      0.00%      0.00% # Number of instructions fetched each cycle (Total)
system.switch_cpus1.fetch.rateDist::0       225946755     87.86%     87.86% # Number of instructions fetched each cycle (Total)
system.switch_cpus1.fetch.rateDist::1         2909053      1.13%     88.99% # Number of instructions fetched each cycle (Total)
system.switch_cpus1.fetch.rateDist::2         2277990      0.89%     89.88% # Number of instructions fetched each cycle (Total)
system.switch_cpus1.fetch.rateDist::3         5375677      2.09%     91.97% # Number of instructions fetched each cycle (Total)
system.switch_cpus1.fetch.rateDist::4         1156387      0.45%     92.42% # Number of instructions fetched each cycle (Total)
system.switch_cpus1.fetch.rateDist::5         1799110      0.70%     93.12% # Number of instructions fetched each cycle (Total)
system.switch_cpus1.fetch.rateDist::6         1379629      0.54%     93.66% # Number of instructions fetched each cycle (Total)
system.switch_cpus1.fetch.rateDist::7          869599      0.34%     93.99% # Number of instructions fetched each cycle (Total)
system.switch_cpus1.fetch.rateDist::8        15444484      6.01%    100.00% # Number of instructions fetched each cycle (Total)
system.switch_cpus1.fetch.rateDist::overflows            0      0.00%    100.00% # Number of instructions fetched each cycle (Total)
system.switch_cpus1.fetch.rateDist::min_value            0                       # Number of instructions fetched each cycle (Total)
system.switch_cpus1.fetch.rateDist::max_value            8                       # Number of instructions fetched each cycle (Total)
system.switch_cpus1.fetch.rateDist::total    257158684                       # Number of instructions fetched each cycle (Total)
system.switch_cpus1.fetch.branchRate         0.091243                       # Number of branch fetches per cycle
system.switch_cpus1.fetch.rate               0.507350                       # Number of inst fetches per cycle
system.switch_cpus1.decode.IdleCycles       214101426                       # Number of cycles decode is idle
system.switch_cpus1.decode.BlockedCycles      7097503                       # Number of cycles decode is blocked
system.switch_cpus1.decode.RunCycles         31086151                       # Number of cycles decode is running
system.switch_cpus1.decode.UnblockCycles       103915                       # Number of cycles decode is unblocking
system.switch_cpus1.decode.SquashCycles       4769688                       # Number of cycles decode is squashing
system.switch_cpus1.decode.BranchResolved      4425374                       # Number of times decode resolved a branch
system.switch_cpus1.decode.BranchMispred        49729                       # Number of times decode detected a branch misprediction
system.switch_cpus1.decode.DecodedInsts     174788140                       # Number of instructions handled by decode
system.switch_cpus1.decode.SquashedInsts        91474                       # Number of squashed instructions handled by decode
system.switch_cpus1.rename.SquashCycles       4769688                       # Number of cycles rename is squashing
system.switch_cpus1.rename.IdleCycles       214690524                       # Number of cycles rename is idle
system.switch_cpus1.rename.BlockCycles        1788208                       # Number of cycles rename is blocking
system.switch_cpus1.rename.serializeStallCycles      3674617                       # count of cycles rename stalled for serializing inst
system.switch_cpus1.rename.RunCycles         30565487                       # Number of cycles rename is running
system.switch_cpus1.rename.UnblockCycles      1670152                       # Number of cycles rename is unblocking
system.switch_cpus1.rename.RenamedInsts     174625169                       # Number of instructions processed by rename
system.switch_cpus1.rename.ROBFullEvents        24949                       # Number of times rename has blocked due to ROB full
system.switch_cpus1.rename.IQFullEvents        319647                       # Number of times rename has blocked due to IQ full
system.switch_cpus1.rename.LSQFullEvents       626561                       # Number of times rename has blocked due to LSQ full
system.switch_cpus1.rename.FullRegisterEvents       210198                       # Number of times there has been no free registers
system.switch_cpus1.rename.RenamedOperands    245637120                       # Number of destination operands rename has renamed
system.switch_cpus1.rename.RenameLookups    814881840                       # Number of register rename lookups that rename has made
system.switch_cpus1.rename.int_rename_lookups    814881840                       # Number of integer rename lookups
system.switch_cpus1.rename.CommittedMaps    199264025                       # Number of HB maps that are committed
system.switch_cpus1.rename.UndoneMaps        46373070                       # Number of HB maps that are undone due to squashing
system.switch_cpus1.rename.serializingInsts        44053                       # count of serializing insts renamed
system.switch_cpus1.rename.tempSerializingInsts        24743                       # count of temporary serializing insts renamed
system.switch_cpus1.rename.skidInsts          5503960                       # count of insts added to the skid buffer
system.switch_cpus1.memDep0.insertedLoads     16976089                       # Number of loads inserted to the mem dependence unit.
system.switch_cpus1.memDep0.insertedStores      8438690                       # Number of stores inserted to the mem dependence unit.
system.switch_cpus1.memDep0.conflictingLoads       157592                       # Number of conflicting loads.
system.switch_cpus1.memDep0.conflictingStores      1877135                       # Number of conflicting stores.
system.switch_cpus1.iq.iqInstsAdded         173376386                       # Number of instructions added to the IQ (excludes non-spec)
system.switch_cpus1.iq.iqNonSpecInstsAdded        44032                       # Number of non-speculative instructions added to the IQ
system.switch_cpus1.iq.iqInstsIssued        162779620                       # Number of instructions issued
system.switch_cpus1.iq.iqSquashedInstsIssued       165767                       # Number of squashed instructions issued
system.switch_cpus1.iq.iqSquashedInstsExamined     29126607                       # Number of squashed instructions iterated over during squash; mainly for profiling
system.switch_cpus1.iq.iqSquashedOperandsExamined     60669054                       # Number of squashed operands that are examined and possibly removed from graph
system.switch_cpus1.iq.iqSquashedNonSpecRemoved         5436                       # Number of squashed non-spec instructions that were removed
system.switch_cpus1.iq.issued_per_cycle::samples    257158684                       # Number of insts issued each cycle
system.switch_cpus1.iq.issued_per_cycle::mean     0.632993                       # Number of insts issued each cycle
system.switch_cpus1.iq.issued_per_cycle::stdev     1.304033                       # Number of insts issued each cycle
system.switch_cpus1.iq.issued_per_cycle::underflows            0      0.00%      0.00% # Number of insts issued each cycle
system.switch_cpus1.iq.issued_per_cycle::0    187026339     72.73%     72.73% # Number of insts issued each cycle
system.switch_cpus1.iq.issued_per_cycle::1     30029045     11.68%     84.41% # Number of insts issued each cycle
system.switch_cpus1.iq.issued_per_cycle::2     14564647      5.66%     90.07% # Number of insts issued each cycle
system.switch_cpus1.iq.issued_per_cycle::3      9754045      3.79%     93.86% # Number of insts issued each cycle
system.switch_cpus1.iq.issued_per_cycle::4      9030205      3.51%     97.37% # Number of insts issued each cycle
system.switch_cpus1.iq.issued_per_cycle::5      3032619      1.18%     98.55% # Number of insts issued each cycle
system.switch_cpus1.iq.issued_per_cycle::6      3127918      1.22%     99.77% # Number of insts issued each cycle
system.switch_cpus1.iq.issued_per_cycle::7       443205      0.17%     99.94% # Number of insts issued each cycle
system.switch_cpus1.iq.issued_per_cycle::8       150661      0.06%    100.00% # Number of insts issued each cycle
system.switch_cpus1.iq.issued_per_cycle::overflows            0      0.00%    100.00% # Number of insts issued each cycle
system.switch_cpus1.iq.issued_per_cycle::min_value            0                       # Number of insts issued each cycle
system.switch_cpus1.iq.issued_per_cycle::max_value            8                       # Number of insts issued each cycle
system.switch_cpus1.iq.issued_per_cycle::total    257158684                       # Number of insts issued each cycle
system.switch_cpus1.iq.fu_full::No_OpClass            0      0.00%      0.00% # attempts to use FU when none available
system.switch_cpus1.iq.fu_full::IntAlu         466836     58.85%     58.85% # attempts to use FU when none available
system.switch_cpus1.iq.fu_full::IntMult             0      0.00%     58.85% # attempts to use FU when none available
system.switch_cpus1.iq.fu_full::IntDiv              0      0.00%     58.85% # attempts to use FU when none available
system.switch_cpus1.iq.fu_full::FloatAdd            0      0.00%     58.85% # attempts to use FU when none available
system.switch_cpus1.iq.fu_full::FloatCmp            0      0.00%     58.85% # attempts to use FU when none available
system.switch_cpus1.iq.fu_full::FloatCvt            0      0.00%     58.85% # attempts to use FU when none available
system.switch_cpus1.iq.fu_full::FloatMult            0      0.00%     58.85% # attempts to use FU when none available
system.switch_cpus1.iq.fu_full::FloatDiv            0      0.00%     58.85% # attempts to use FU when none available
system.switch_cpus1.iq.fu_full::FloatSqrt            0      0.00%     58.85% # attempts to use FU when none available
system.switch_cpus1.iq.fu_full::SimdAdd             0      0.00%     58.85% # attempts to use FU when none available
system.switch_cpus1.iq.fu_full::SimdAddAcc            0      0.00%     58.85% # attempts to use FU when none available
system.switch_cpus1.iq.fu_full::SimdAlu             0      0.00%     58.85% # attempts to use FU when none available
system.switch_cpus1.iq.fu_full::SimdCmp             0      0.00%     58.85% # attempts to use FU when none available
system.switch_cpus1.iq.fu_full::SimdCvt             0      0.00%     58.85% # attempts to use FU when none available
system.switch_cpus1.iq.fu_full::SimdMisc            0      0.00%     58.85% # attempts to use FU when none available
system.switch_cpus1.iq.fu_full::SimdMult            0      0.00%     58.85% # attempts to use FU when none available
system.switch_cpus1.iq.fu_full::SimdMultAcc            0      0.00%     58.85% # attempts to use FU when none available
system.switch_cpus1.iq.fu_full::SimdShift            0      0.00%     58.85% # attempts to use FU when none available
system.switch_cpus1.iq.fu_full::SimdShiftAcc            0      0.00%     58.85% # attempts to use FU when none available
system.switch_cpus1.iq.fu_full::SimdSqrt            0      0.00%     58.85% # attempts to use FU when none available
system.switch_cpus1.iq.fu_full::SimdFloatAdd            0      0.00%     58.85% # attempts to use FU when none available
system.switch_cpus1.iq.fu_full::SimdFloatAlu            0      0.00%     58.85% # attempts to use FU when none available
system.switch_cpus1.iq.fu_full::SimdFloatCmp            0      0.00%     58.85% # attempts to use FU when none available
system.switch_cpus1.iq.fu_full::SimdFloatCvt            0      0.00%     58.85% # attempts to use FU when none available
system.switch_cpus1.iq.fu_full::SimdFloatDiv            0      0.00%     58.85% # attempts to use FU when none available
system.switch_cpus1.iq.fu_full::SimdFloatMisc            0      0.00%     58.85% # attempts to use FU when none available
system.switch_cpus1.iq.fu_full::SimdFloatMult            0      0.00%     58.85% # attempts to use FU when none available
system.switch_cpus1.iq.fu_full::SimdFloatMultAcc            0      0.00%     58.85% # attempts to use FU when none available
system.switch_cpus1.iq.fu_full::SimdFloatSqrt            0      0.00%     58.85% # attempts to use FU when none available
system.switch_cpus1.iq.fu_full::MemRead        163833     20.65%     79.50% # attempts to use FU when none available
system.switch_cpus1.iq.fu_full::MemWrite       162624     20.50%    100.00% # attempts to use FU when none available
system.switch_cpus1.iq.fu_full::IprAccess            0      0.00%    100.00% # attempts to use FU when none available
system.switch_cpus1.iq.fu_full::InstPrefetch            0      0.00%    100.00% # attempts to use FU when none available
system.switch_cpus1.iq.FU_type_0::No_OpClass            0      0.00%      0.00% # Type of FU issued
system.switch_cpus1.iq.FU_type_0::IntAlu    136720858     83.99%     83.99% # Type of FU issued
system.switch_cpus1.iq.FU_type_0::IntMult      2465998      1.51%     85.51% # Type of FU issued
system.switch_cpus1.iq.FU_type_0::IntDiv            0      0.00%     85.51% # Type of FU issued
system.switch_cpus1.iq.FU_type_0::FloatAdd            0      0.00%     85.51% # Type of FU issued
system.switch_cpus1.iq.FU_type_0::FloatCmp            0      0.00%     85.51% # Type of FU issued
system.switch_cpus1.iq.FU_type_0::FloatCvt            0      0.00%     85.51% # Type of FU issued
system.switch_cpus1.iq.FU_type_0::FloatMult            0      0.00%     85.51% # Type of FU issued
system.switch_cpus1.iq.FU_type_0::FloatDiv            0      0.00%     85.51% # Type of FU issued
system.switch_cpus1.iq.FU_type_0::FloatSqrt            0      0.00%     85.51% # Type of FU issued
system.switch_cpus1.iq.FU_type_0::SimdAdd            0      0.00%     85.51% # Type of FU issued
system.switch_cpus1.iq.FU_type_0::SimdAddAcc            0      0.00%     85.51% # Type of FU issued
system.switch_cpus1.iq.FU_type_0::SimdAlu            0      0.00%     85.51% # Type of FU issued
system.switch_cpus1.iq.FU_type_0::SimdCmp            0      0.00%     85.51% # Type of FU issued
system.switch_cpus1.iq.FU_type_0::SimdCvt            0      0.00%     85.51% # Type of FU issued
system.switch_cpus1.iq.FU_type_0::SimdMisc            0      0.00%     85.51% # Type of FU issued
system.switch_cpus1.iq.FU_type_0::SimdMult            0      0.00%     85.51% # Type of FU issued
system.switch_cpus1.iq.FU_type_0::SimdMultAcc            0      0.00%     85.51% # Type of FU issued
system.switch_cpus1.iq.FU_type_0::SimdShift            0      0.00%     85.51% # Type of FU issued
system.switch_cpus1.iq.FU_type_0::SimdShiftAcc            0      0.00%     85.51% # Type of FU issued
system.switch_cpus1.iq.FU_type_0::SimdSqrt            0      0.00%     85.51% # Type of FU issued
system.switch_cpus1.iq.FU_type_0::SimdFloatAdd            0      0.00%     85.51% # Type of FU issued
system.switch_cpus1.iq.FU_type_0::SimdFloatAlu            0      0.00%     85.51% # Type of FU issued
system.switch_cpus1.iq.FU_type_0::SimdFloatCmp            0      0.00%     85.51% # Type of FU issued
system.switch_cpus1.iq.FU_type_0::SimdFloatCvt            0      0.00%     85.51% # Type of FU issued
system.switch_cpus1.iq.FU_type_0::SimdFloatDiv            0      0.00%     85.51% # Type of FU issued
system.switch_cpus1.iq.FU_type_0::SimdFloatMisc        19299      0.01%     85.52% # Type of FU issued
system.switch_cpus1.iq.FU_type_0::SimdFloatMult            0      0.00%     85.52% # Type of FU issued
system.switch_cpus1.iq.FU_type_0::SimdFloatMultAcc            0      0.00%     85.52% # Type of FU issued
system.switch_cpus1.iq.FU_type_0::SimdFloatSqrt            0      0.00%     85.52% # Type of FU issued
system.switch_cpus1.iq.FU_type_0::MemRead     15202942      9.34%     94.86% # Type of FU issued
system.switch_cpus1.iq.FU_type_0::MemWrite      8370523      5.14%    100.00% # Type of FU issued
system.switch_cpus1.iq.FU_type_0::IprAccess            0      0.00%    100.00% # Type of FU issued
system.switch_cpus1.iq.FU_type_0::InstPrefetch            0      0.00%    100.00% # Type of FU issued
system.switch_cpus1.iq.FU_type_0::total     162779620                       # Type of FU issued
system.switch_cpus1.iq.rate                  0.579503                       # Inst issue rate
system.switch_cpus1.iq.fu_busy_cnt             793293                       # FU busy when requested
system.switch_cpus1.iq.fu_busy_rate          0.004873                       # FU busy rate (busy events/executed inst)
system.switch_cpus1.iq.int_inst_queue_reads    583676980                       # Number of integer instruction queue reads
system.switch_cpus1.iq.int_inst_queue_writes    202547581                       # Number of integer instruction queue writes
system.switch_cpus1.iq.int_inst_queue_wakeup_accesses    158600998                       # Number of integer instruction queue wakeup accesses
system.switch_cpus1.iq.fp_inst_queue_reads            0                       # Number of floating instruction queue reads
system.switch_cpus1.iq.fp_inst_queue_writes            0                       # Number of floating instruction queue writes
system.switch_cpus1.iq.fp_inst_queue_wakeup_accesses            0                       # Number of floating instruction queue wakeup accesses
system.switch_cpus1.iq.int_alu_accesses     163572913                       # Number of integer alu accesses
system.switch_cpus1.iq.fp_alu_accesses              0                       # Number of floating point alu accesses
system.switch_cpus1.iew.lsq.thread0.forwLoads       408809                       # Number of loads that had data forwarded from stores
system.switch_cpus1.iew.lsq.thread0.invAddrLoads            0                       # Number of loads ignored due to an invalid address
system.switch_cpus1.iew.lsq.thread0.squashedLoads      3863379                       # Number of loads squashed
system.switch_cpus1.iew.lsq.thread0.ignoredResponses         1143                       # Number of memory responses ignored because the instruction is squashed
system.switch_cpus1.iew.lsq.thread0.memOrderViolation          556                       # Number of memory ordering violations
system.switch_cpus1.iew.lsq.thread0.squashedStores       238418                       # Number of stores squashed
system.switch_cpus1.iew.lsq.thread0.invAddrSwpfs            0                       # Number of software prefetches ignored due to an invalid address
system.switch_cpus1.iew.lsq.thread0.blockedLoads            0                       # Number of blocked loads due to partial load-store forwarding
system.switch_cpus1.iew.lsq.thread0.rescheduledLoads            1                       # Number of loads that were rescheduled
system.switch_cpus1.iew.lsq.thread0.cacheBlocked            0                       # Number of times an access to memory failed due to the cache being blocked
system.switch_cpus1.iew.iewIdleCycles               0                       # Number of cycles IEW is idle
system.switch_cpus1.iew.iewSquashCycles       4769688                       # Number of cycles IEW is squashing
system.switch_cpus1.iew.iewBlockCycles        1134386                       # Number of cycles IEW is blocking
system.switch_cpus1.iew.iewUnblockCycles       110711                       # Number of cycles IEW is unblocking
system.switch_cpus1.iew.iewDispatchedInsts    173420418                       # Number of instructions dispatched to IQ
system.switch_cpus1.iew.iewDispSquashedInsts        11691                       # Number of squashed instructions skipped by dispatch
system.switch_cpus1.iew.iewDispLoadInsts     16976089                       # Number of dispatched load instructions
system.switch_cpus1.iew.iewDispStoreInsts      8438690                       # Number of dispatched store instructions
system.switch_cpus1.iew.iewDispNonSpecInsts        24734                       # Number of dispatched non-speculative instructions
system.switch_cpus1.iew.iewIQFullEvents         93550                       # Number of times the IQ has become full, causing a stall
system.switch_cpus1.iew.iewLSQFullEvents            0                       # Number of times the LSQ has become full, causing a stall
system.switch_cpus1.iew.memOrderViolationEvents          556                       # Number of memory order violations
system.switch_cpus1.iew.predictedTakenIncorrect      1273327                       # Number of branches that were predicted taken incorrectly
system.switch_cpus1.iew.predictedNotTakenIncorrect      1334641                       # Number of branches that were predicted not taken incorrectly
system.switch_cpus1.iew.branchMispredicts      2607968                       # Number of branch mispredicts detected at execute
system.switch_cpus1.iew.iewExecutedInsts    159810964                       # Number of executed instructions
system.switch_cpus1.iew.iewExecLoadInsts     14676062                       # Number of load instructions executed
system.switch_cpus1.iew.iewExecSquashedInsts      2968652                       # Number of squashed instructions skipped in execute
system.switch_cpus1.iew.exec_swp                    0                       # number of swp insts executed
system.switch_cpus1.iew.exec_nop                    0                       # number of nop insts executed
system.switch_cpus1.iew.exec_refs            23045141                       # number of memory reference insts executed
system.switch_cpus1.iew.exec_branches        22650914                       # Number of branches executed
system.switch_cpus1.iew.exec_stores           8369079                       # Number of stores executed
system.switch_cpus1.iew.exec_rate            0.568934                       # Inst execution rate
system.switch_cpus1.iew.wb_sent             158602155                       # cumulative count of insts sent to commit
system.switch_cpus1.iew.wb_count            158600998                       # cumulative count of insts written-back
system.switch_cpus1.iew.wb_producers         93913156                       # num instructions producing a value
system.switch_cpus1.iew.wb_consumers        259336288                       # num instructions consuming a value
system.switch_cpus1.iew.wb_penalized                0                       # number of instrctions required to write to 'other' IQ
system.switch_cpus1.iew.wb_rate              0.564627                       # insts written-back per cycle
system.switch_cpus1.iew.wb_fanout            0.362129                       # average fanout of values written-back
system.switch_cpus1.iew.wb_penalized_rate            0                       # fraction of instructions written-back that wrote to 'other' IQ
system.switch_cpus1.commit.commitCommittedInsts    116733722                       # The number of committed instructions
system.switch_cpus1.commit.commitCommittedOps    143358220                       # The number of committed instructions
system.switch_cpus1.commit.commitSquashedInsts     30063389                       # The number of squashed insts skipped by commit
system.switch_cpus1.commit.commitNonSpecStalls        38596                       # The number of times commit has been forced to stall to communicate backwards
system.switch_cpus1.commit.branchMispredicts      2351741                       # The number of times a branch was mispredicted
system.switch_cpus1.commit.committed_per_cycle::samples    252388996                       # Number of insts commited each cycle
system.switch_cpus1.commit.committed_per_cycle::mean     0.568005                       # Number of insts commited each cycle
system.switch_cpus1.commit.committed_per_cycle::stdev     1.372827                       # Number of insts commited each cycle
system.switch_cpus1.commit.committed_per_cycle::underflows            0      0.00%      0.00% # Number of insts commited each cycle
system.switch_cpus1.commit.committed_per_cycle::0    192202629     76.15%     76.15% # Number of insts commited each cycle
system.switch_cpus1.commit.committed_per_cycle::1     28323597     11.22%     87.38% # Number of insts commited each cycle
system.switch_cpus1.commit.committed_per_cycle::2     12364597      4.90%     92.27% # Number of insts commited each cycle
system.switch_cpus1.commit.committed_per_cycle::3      7022017      2.78%     95.06% # Number of insts commited each cycle
system.switch_cpus1.commit.committed_per_cycle::4      5092584      2.02%     97.07% # Number of insts commited each cycle
system.switch_cpus1.commit.committed_per_cycle::5      1997210      0.79%     97.87% # Number of insts commited each cycle
system.switch_cpus1.commit.committed_per_cycle::6      1546718      0.61%     98.48% # Number of insts commited each cycle
system.switch_cpus1.commit.committed_per_cycle::7      1114468      0.44%     98.92% # Number of insts commited each cycle
system.switch_cpus1.commit.committed_per_cycle::8      2725176      1.08%    100.00% # Number of insts commited each cycle
system.switch_cpus1.commit.committed_per_cycle::overflows            0      0.00%    100.00% # Number of insts commited each cycle
system.switch_cpus1.commit.committed_per_cycle::min_value            0                       # Number of insts commited each cycle
system.switch_cpus1.commit.committed_per_cycle::max_value            8                       # Number of insts commited each cycle
system.switch_cpus1.commit.committed_per_cycle::total    252388996                       # Number of insts commited each cycle
system.switch_cpus1.commit.committedInsts    116733722                       # Number of instructions committed
system.switch_cpus1.commit.committedOps     143358220                       # Number of ops (including micro ops) committed
system.switch_cpus1.commit.swp_count                0                       # Number of s/w prefetches committed
[...]
system.cpu2.icache.overall_accesses::switch_cpus2.inst     13370188                       # number of overall (read+write) accesses
system.cpu2.icache.overall_accesses::total     13370188                       # number of overall (read+write) accesses
system.cpu2.icache.ReadReq_miss_rate::switch_cpus2.inst     0.000001                       # miss rate for ReadReq accesses
system.cpu2.icache.ReadReq_miss_rate::total     0.000001                       # miss rate for ReadReq accesses
system.cpu2.icache.demand_miss_rate::switch_cpus2.inst     0.000001                       # miss rate for demand accesses
system.cpu2.icache.demand_miss_rate::total     0.000001                       # miss rate for demand accesses
system.cpu2.icache.overall_miss_rate::switch_cpus2.inst     0.000001                       # miss rate for overall accesses
system.cpu2.icache.overall_miss_rate::total     0.000001                       # miss rate for overall accesses
system.cpu2.icache.ReadReq_avg_miss_latency::switch_cpus2.inst       186516                       # average ReadReq miss latency
system.cpu2.icache.ReadReq_avg_miss_latency::total       186516                       # average ReadReq miss latency
system.cpu2.icache.demand_avg_miss_latency::switch_cpus2.inst       186516                       # average overall miss latency
system.cpu2.icache.demand_avg_miss_latency::total       186516                       # average overall miss latency
system.cpu2.icache.overall_avg_miss_latency::switch_cpus2.inst       186516                       # average overall miss latency
system.cpu2.icache.overall_avg_miss_latency::total       186516                       # average overall miss latency
system.cpu2.icache.blocked_cycles::no_mshrs            0                       # number of cycles access was blocked
system.cpu2.icache.blocked_cycles::no_targets            0                       # number of cycles access was blocked
system.cpu2.icache.blocked::no_mshrs                0                       # number of cycles access was blocked
system.cpu2.icache.blocked::no_targets              0                       # number of cycles access was blocked
system.cpu2.icache.avg_blocked_cycles::no_mshrs          nan                       # average number of cycles each access was blocked
system.cpu2.icache.avg_blocked_cycles::no_targets          nan                       # average number of cycles each access was blocked
system.cpu2.icache.fast_writes                      0                       # number of fast writes performed
system.cpu2.icache.cache_copies                     0                       # number of cache copies performed
system.cpu2.icache.ReadReq_mshr_hits::switch_cpus2.inst            1                       # number of ReadReq MSHR hits
system.cpu2.icache.ReadReq_mshr_hits::total            1                       # number of ReadReq MSHR hits
system.cpu2.icache.demand_mshr_hits::switch_cpus2.inst            1                       # number of demand (read+write) MSHR hits
system.cpu2.icache.demand_mshr_hits::total            1                       # number of demand (read+write) MSHR hits
system.cpu2.icache.overall_mshr_hits::switch_cpus2.inst            1                       # number of overall MSHR hits
system.cpu2.icache.overall_mshr_hits::total            1                       # number of overall MSHR hits
system.cpu2.icache.ReadReq_mshr_misses::switch_cpus2.inst           11                       # number of ReadReq MSHR misses
system.cpu2.icache.ReadReq_mshr_misses::total           11                       # number of ReadReq MSHR misses
system.cpu2.icache.demand_mshr_misses::switch_cpus2.inst           11                       # number of demand (read+write) MSHR misses
system.cpu2.icache.demand_mshr_misses::total           11                       # number of demand (read+write) MSHR misses
system.cpu2.icache.overall_mshr_misses::switch_cpus2.inst           11                       # number of overall MSHR misses
system.cpu2.icache.overall_mshr_misses::total           11                       # number of overall MSHR misses
system.cpu2.icache.ReadReq_mshr_miss_latency::switch_cpus2.inst      1975298                       # number of ReadReq MSHR miss cycles
system.cpu2.icache.ReadReq_mshr_miss_latency::total      1975298                       # number of ReadReq MSHR miss cycles
system.cpu2.icache.demand_mshr_miss_latency::switch_cpus2.inst      1975298                       # number of demand (read+write) MSHR miss cycles
system.cpu2.icache.demand_mshr_miss_latency::total      1975298                       # number of demand (read+write) MSHR miss cycles
system.cpu2.icache.overall_mshr_miss_latency::switch_cpus2.inst      1975298                       # number of overall MSHR miss cycles
system.cpu2.icache.overall_mshr_miss_latency::total      1975298                       # number of overall MSHR miss cycles
system.cpu2.icache.ReadReq_mshr_miss_rate::switch_cpus2.inst     0.000001                       # mshr miss rate for ReadReq accesses
system.cpu2.icache.ReadReq_mshr_miss_rate::total     0.000001                       # mshr miss rate for ReadReq accesses
system.cpu2.icache.demand_mshr_miss_rate::switch_cpus2.inst     0.000001                       # mshr miss rate for demand accesses
system.cpu2.icache.demand_mshr_miss_rate::total     0.000001                       # mshr miss rate for demand accesses
system.cpu2.icache.overall_mshr_miss_rate::switch_cpus2.inst     0.000001                       # mshr miss rate for overall accesses
system.cpu2.icache.overall_mshr_miss_rate::total     0.000001                       # mshr miss rate for overall accesses
system.cpu2.icache.ReadReq_avg_mshr_miss_latency::switch_cpus2.inst 179572.545455                       # average ReadReq mshr miss latency
system.cpu2.icache.ReadReq_avg_mshr_miss_latency::total 179572.545455                       # average ReadReq mshr miss latency
system.cpu2.icache.demand_avg_mshr_miss_latency::switch_cpus2.inst 179572.545455                       # average overall mshr miss latency
system.cpu2.icache.demand_avg_mshr_miss_latency::total 179572.545455                       # average overall mshr miss latency
system.cpu2.icache.overall_avg_mshr_miss_latency::switch_cpus2.inst 179572.545455                       # average overall mshr miss latency
system.cpu2.icache.overall_avg_mshr_miss_latency::total 179572.545455                       # average overall mshr miss latency
system.cpu2.icache.no_allocate_misses               0                       # Number of misses that were no-allocate
system.cpu2.dcache.replacements                110437                       # number of replacements
system.cpu2.dcache.tagsinuse                      256                       # Cycle average of tags in use
system.cpu2.dcache.total_refs               206069651                       # Total number of references to valid blocks.
system.cpu2.dcache.sampled_refs                110693                       # Sample count of references to valid blocks.
system.cpu2.dcache.avg_refs               1861.632181                       # Average number of references to valid blocks.
system.cpu2.dcache.warmup_cycle                     0                       # Cycle when the warmup percentage was hit.
system.cpu2.dcache.occ_blocks::switch_cpus2.data   234.609439                       # Average occupied blocks per requestor
system.cpu2.dcache.occ_blocks::cpu2.data    21.390561                       # Average occupied blocks per requestor
system.cpu2.dcache.occ_percent::switch_cpus2.data     0.916443                       # Average percentage of cache occupancy
system.cpu2.dcache.occ_percent::cpu2.data     0.083557                       # Average percentage of cache occupancy
system.cpu2.dcache.occ_percent::total               1                       # Average percentage of cache occupancy
system.cpu2.dcache.ReadReq_hits::switch_cpus2.data     11870237                       # number of ReadReq hits
system.cpu2.dcache.ReadReq_hits::total       11870237                       # number of ReadReq hits
system.cpu2.dcache.WriteReq_hits::switch_cpus2.data      8782153                       # number of WriteReq hits
system.cpu2.dcache.WriteReq_hits::total       8782153                       # number of WriteReq hits
system.cpu2.dcache.LoadLockedReq_hits::switch_cpus2.data        18490                       # number of LoadLockedReq hits
system.cpu2.dcache.LoadLockedReq_hits::total        18490                       # number of LoadLockedReq hits
system.cpu2.dcache.StoreCondReq_hits::switch_cpus2.data        18174                       # number of StoreCondReq hits
system.cpu2.dcache.StoreCondReq_hits::total        18174                       # number of StoreCondReq hits
system.cpu2.dcache.demand_hits::switch_cpus2.data     20652390                       # number of demand (read+write) hits
system.cpu2.dcache.demand_hits::total        20652390                       # number of demand (read+write) hits
system.cpu2.dcache.overall_hits::switch_cpus2.data     20652390                       # number of overall hits
system.cpu2.dcache.overall_hits::total       20652390                       # number of overall hits
system.cpu2.dcache.ReadReq_misses::switch_cpus2.data       467294                       # number of ReadReq misses
system.cpu2.dcache.ReadReq_misses::total       467294                       # number of ReadReq misses
system.cpu2.dcache.WriteReq_misses::switch_cpus2.data           88                       # number of WriteReq misses
system.cpu2.dcache.WriteReq_misses::total           88                       # number of WriteReq misses
system.cpu2.dcache.demand_misses::switch_cpus2.data       467382                       # number of demand (read+write) misses
system.cpu2.dcache.demand_misses::total        467382                       # number of demand (read+write) misses
system.cpu2.dcache.overall_misses::switch_cpus2.data       467382                       # number of overall misses
system.cpu2.dcache.overall_misses::total       467382                       # number of overall misses
system.cpu2.dcache.ReadReq_miss_latency::switch_cpus2.data  43145075951                       # number of ReadReq miss cycles
system.cpu2.dcache.ReadReq_miss_latency::total  43145075951                       # number of ReadReq miss cycles
system.cpu2.dcache.WriteReq_miss_latency::switch_cpus2.data      7986061                       # number of WriteReq miss cycles
system.cpu2.dcache.WriteReq_miss_latency::total      7986061                       # number of WriteReq miss cycles
system.cpu2.dcache.demand_miss_latency::switch_cpus2.data  43153062012                       # number of demand (read+write) miss cycles
system.cpu2.dcache.demand_miss_latency::total  43153062012                       # number of demand (read+write) miss cycles
system.cpu2.dcache.overall_miss_latency::switch_cpus2.data  43153062012                       # number of overall miss cycles
system.cpu2.dcache.overall_miss_latency::total  43153062012                       # number of overall miss cycles
system.cpu2.dcache.ReadReq_accesses::switch_cpus2.data     12337531                       # number of ReadReq accesses(hits+misses)
system.cpu2.dcache.ReadReq_accesses::total     12337531                       # number of ReadReq accesses(hits+misses)
system.cpu2.dcache.WriteReq_accesses::switch_cpus2.data      8782241                       # number of WriteReq accesses(hits+misses)
system.cpu2.dcache.WriteReq_accesses::total      8782241                       # number of WriteReq accesses(hits+misses)
system.cpu2.dcache.LoadLockedReq_accesses::switch_cpus2.data        18490                       # number of LoadLockedReq accesses(hits+misses)
system.cpu2.dcache.LoadLockedReq_accesses::total        18490                       # number of LoadLockedReq accesses(hits+misses)
system.cpu2.dcache.StoreCondReq_accesses::switch_cpus2.data        18174                       # number of StoreCondReq accesses(hits+misses)
system.cpu2.dcache.StoreCondReq_accesses::total        18174                       # number of StoreCondReq accesses(hits+misses)
system.cpu2.dcache.demand_accesses::switch_cpus2.data     21119772                       # number of demand (read+write) accesses
system.cpu2.dcache.demand_accesses::total     21119772                       # number of demand (read+write) accesses
system.cpu2.dcache.overall_accesses::switch_cpus2.data     21119772                       # number of overall (read+write) accesses
system.cpu2.dcache.overall_accesses::total     21119772                       # number of overall (read+write) accesses
system.cpu2.dcache.ReadReq_miss_rate::switch_cpus2.data     0.037876                       # miss rate for ReadReq accesses
system.cpu2.dcache.ReadReq_miss_rate::total     0.037876                       # miss rate for ReadReq accesses
system.cpu2.dcache.WriteReq_miss_rate::switch_cpus2.data     0.000010                       # miss rate for WriteReq accesses
system.cpu2.dcache.WriteReq_miss_rate::total     0.000010                       # miss rate for WriteReq accesses
system.cpu2.dcache.demand_miss_rate::switch_cpus2.data     0.022130                       # miss rate for demand accesses
system.cpu2.dcache.demand_miss_rate::total     0.022130                       # miss rate for demand accesses
system.cpu2.dcache.overall_miss_rate::switch_cpus2.data     0.022130                       # miss rate for overall accesses
system.cpu2.dcache.overall_miss_rate::total     0.022130                       # miss rate for overall accesses
system.cpu2.dcache.ReadReq_avg_miss_latency::switch_cpus2.data 92329.616796                       # average ReadReq miss latency
system.cpu2.dcache.ReadReq_avg_miss_latency::total 92329.616796                       # average ReadReq miss latency
system.cpu2.dcache.WriteReq_avg_miss_latency::switch_cpus2.data 90750.693182                       # average WriteReq miss latency
system.cpu2.dcache.WriteReq_avg_miss_latency::total 90750.693182                       # average WriteReq miss latency
system.cpu2.dcache.demand_avg_miss_latency::switch_cpus2.data 92329.319512                       # average overall miss latency
system.cpu2.dcache.demand_avg_miss_latency::total 92329.319512                       # average overall miss latency
system.cpu2.dcache.overall_avg_miss_latency::switch_cpus2.data 92329.319512                       # average overall miss latency
system.cpu2.dcache.overall_avg_miss_latency::total 92329.319512                       # average overall miss latency
system.cpu2.dcache.blocked_cycles::no_mshrs            0                       # number of cycles access was blocked
system.cpu2.dcache.blocked_cycles::no_targets            0                       # number of cycles access was blocked
system.cpu2.dcache.blocked::no_mshrs                0                       # number of cycles access was blocked
system.cpu2.dcache.blocked::no_targets              0                       # number of cycles access was blocked
system.cpu2.dcache.avg_blocked_cycles::no_mshrs          nan                       # average number of cycles each access was blocked
system.cpu2.dcache.avg_blocked_cycles::no_targets          nan                       # average number of cycles each access was blocked
system.cpu2.dcache.fast_writes                      0                       # number of fast writes performed
system.cpu2.dcache.cache_copies                     0                       # number of cache copies performed
system.cpu2.dcache.writebacks::writebacks        19087                       # number of writebacks
system.cpu2.dcache.writebacks::total            19087                       # number of writebacks
system.cpu2.dcache.ReadReq_mshr_hits::switch_cpus2.data       356857                       # number of ReadReq MSHR hits
system.cpu2.dcache.ReadReq_mshr_hits::total       356857                       # number of ReadReq MSHR hits
system.cpu2.dcache.WriteReq_mshr_hits::switch_cpus2.data           88                       # number of WriteReq MSHR hits
system.cpu2.dcache.WriteReq_mshr_hits::total           88                       # number of WriteReq MSHR hits
system.cpu2.dcache.demand_mshr_hits::switch_cpus2.data       356945                       # number of demand (read+write) MSHR hits
system.cpu2.dcache.demand_mshr_hits::total       356945                       # number of demand (read+write) MSHR hits
system.cpu2.dcache.overall_mshr_hits::switch_cpus2.data       356945                       # number of overall MSHR hits
system.cpu2.dcache.overall_mshr_hits::total       356945                       # number of overall MSHR hits
system.cpu2.dcache.ReadReq_mshr_misses::switch_cpus2.data       110437                       # number of ReadReq MSHR misses
system.cpu2.dcache.ReadReq_mshr_misses::total       110437                       # number of ReadReq MSHR misses
system.cpu2.dcache.demand_mshr_misses::switch_cpus2.data       110437                       # number of demand (read+write) MSHR misses
system.cpu2.dcache.demand_mshr_misses::total       110437                       # number of demand (read+write) MSHR misses
system.cpu2.dcache.overall_mshr_misses::switch_cpus2.data       110437                       # number of overall MSHR misses
system.cpu2.dcache.overall_mshr_misses::total       110437                       # number of overall MSHR misses
system.cpu2.dcache.ReadReq_mshr_miss_latency::switch_cpus2.data   9326171814                       # number of ReadReq MSHR miss cycles
system.cpu2.dcache.ReadReq_mshr_miss_latency::total   9326171814                       # number of ReadReq MSHR miss cycles
system.cpu2.dcache.demand_mshr_miss_latency::switch_cpus2.data   9326171814                       # number of demand (read+write) MSHR miss cycles
system.cpu2.dcache.demand_mshr_miss_latency::total   9326171814                       # number of demand (read+write) MSHR miss cycles
system.cpu2.dcache.overall_mshr_miss_latency::switch_cpus2.data   9326171814                       # number of overall MSHR miss cycles
system.cpu2.dcache.overall_mshr_miss_latency::total   9326171814                       # number of overall MSHR miss cycles
system.cpu2.dcache.ReadReq_mshr_miss_rate::switch_cpus2.data     0.008951                       # mshr miss rate for ReadReq accesses
system.cpu2.dcache.ReadReq_mshr_miss_rate::total     0.008951                       # mshr miss rate for ReadReq accesses
system.cpu2.dcache.demand_mshr_miss_rate::switch_cpus2.data     0.005229                       # mshr miss rate for demand accesses
system.cpu2.dcache.demand_mshr_miss_rate::total     0.005229                       # mshr miss rate for demand accesses
system.cpu2.dcache.overall_mshr_miss_rate::switch_cpus2.data     0.005229                       # mshr miss rate for overall accesses
system.cpu2.dcache.overall_mshr_miss_rate::total     0.005229                       # mshr miss rate for overall accesses
system.cpu2.dcache.ReadReq_avg_mshr_miss_latency::switch_cpus2.data 84447.891685                       # average ReadReq mshr miss latency
system.cpu2.dcache.ReadReq_avg_mshr_miss_latency::total 84447.891685                       # average ReadReq mshr miss latency
system.cpu2.dcache.demand_avg_mshr_miss_latency::switch_cpus2.data 84447.891685                       # average overall mshr miss latency
system.cpu2.dcache.demand_avg_mshr_miss_latency::total 84447.891685                       # average overall mshr miss latency
system.cpu2.dcache.overall_avg_mshr_miss_latency::switch_cpus2.data 84447.891685                       # average overall mshr miss latency
system.cpu2.dcache.overall_avg_mshr_miss_latency::total 84447.891685                       # average overall mshr miss latency
system.cpu2.dcache.no_allocate_misses               0                       # Number of misses that were no-allocate

---------- End Simulation Statistics   ----------
