
---------- Begin Simulation Statistics ----------
sim_seconds                                  0.033941                       # Number of seconds simulated
sim_ticks                                 33940500279                       # Number of ticks simulated
final_tick                               605443423398                       # Number of ticks from beginning of simulation (restored from checkpoints and never reset)
sim_freq                                 1000000000000                       # Frequency of simulated ticks
host_inst_rate                                 265863                       # Simulator instruction rate (inst/s)
host_op_rate                                   340592                       # Simulator op (including micro ops) rate (op/s)
host_tick_rate                                1946603                       # Simulator tick rate (ticks/s)
host_mem_usage                               16931904                       # Number of bytes of host memory used
host_seconds                                 17435.76                       # Real time elapsed on the host
sim_insts                                  4635524652                       # Number of instructions simulated
sim_ops                                    5938481244                       # Number of ops (including micro ops) simulated
system.physmem.bytes_read::switch_cpus0.inst         2048                       # Number of bytes read from this memory
system.physmem.bytes_read::switch_cpus0.data      1846656                       # Number of bytes read from this memory
system.physmem.bytes_read::switch_cpus1.inst         1664                       # Number of bytes read from this memory
system.physmem.bytes_read::switch_cpus1.data      2278656                       # Number of bytes read from this memory
system.physmem.bytes_read::switch_cpus2.inst         1792                       # Number of bytes read from this memory
system.physmem.bytes_read::switch_cpus2.data       615808                       # Number of bytes read from this memory
system.physmem.bytes_read::switch_cpus3.inst         1664                       # Number of bytes read from this memory
system.physmem.bytes_read::switch_cpus3.data      1133824                       # Number of bytes read from this memory
system.physmem.bytes_read::total              5882112                       # Number of bytes read from this memory
system.physmem.bytes_inst_read::switch_cpus0.inst         2048                       # Number of instructions bytes read from this memory
system.physmem.bytes_inst_read::switch_cpus1.inst         1664                       # Number of instructions bytes read from this memory
system.physmem.bytes_inst_read::switch_cpus2.inst         1792                       # Number of instructions bytes read from this memory
system.physmem.bytes_inst_read::switch_cpus3.inst         1664                       # Number of instructions bytes read from this memory
system.physmem.bytes_inst_read::total            7168                       # Number of instructions bytes read from this memory
system.physmem.bytes_written::writebacks      1859072                       # Number of bytes written to this memory
system.physmem.bytes_written::total           1859072                       # Number of bytes written to this memory
system.physmem.num_reads::switch_cpus0.inst           16                       # Number of read requests responded to by this memory
system.physmem.num_reads::switch_cpus0.data        14427                       # Number of read requests responded to by this memory
system.physmem.num_reads::switch_cpus1.inst           13                       # Number of read requests responded to by this memory
system.physmem.num_reads::switch_cpus1.data        17802                       # Number of read requests responded to by this memory
system.physmem.num_reads::switch_cpus2.inst           14                       # Number of read requests responded to by this memory
system.physmem.num_reads::switch_cpus2.data         4811                       # Number of read requests responded to by this memory
system.physmem.num_reads::switch_cpus3.inst           13                       # Number of read requests responded to by this memory
system.physmem.num_reads::switch_cpus3.data         8858                       # Number of read requests responded to by this memory
system.physmem.num_reads::total                 45954                       # Number of read requests responded to by this memory
system.physmem.num_writes::writebacks           14524                       # Number of write requests responded to by this memory
system.physmem.num_writes::functional               0                       # Number of write requests responded to by this memory
system.physmem.num_writes::interrupt                0                       # Number of write requests responded to by this memory
system.physmem.num_writes::switch_cpus0.dtb.walker            0                       # Number of write requests responded to by this memory
system.physmem.num_writes::switch_cpus0.itb.walker            0                       # Number of write requests responded to by this memory
system.physmem.num_writes::switch_cpus0.inst            0                       # Number of write requests responded to by this memory
system.physmem.num_writes::switch_cpus0.data            0                       # Number of write requests responded to by this memory
system.physmem.num_writes::switch_cpus1.dtb.walker            0                       # Number of write requests responded to by this memory
system.physmem.num_writes::switch_cpus1.itb.walker            0                       # Number of write requests responded to by this memory
system.physmem.num_writes::switch_cpus1.inst            0                       # Number of write requests responded to by this memory
system.physmem.num_writes::switch_cpus1.data            0                       # Number of write requests responded to by this memory
system.physmem.num_writes::switch_cpus2.dtb.walker            0                       # Number of write requests responded to by this memory
system.physmem.num_writes::switch_cpus2.itb.walker            0                       # Number of write requests responded to by this memory
system.physmem.num_writes::switch_cpus2.inst            0                       # Number of write requests responded to by this memory
system.physmem.num_writes::switch_cpus2.data            0                       # Number of write requests responded to by this memory
system.physmem.num_writes::switch_cpus3.dtb.walker            0                       # Number of write requests responded to by this memory
system.physmem.num_writes::switch_cpus3.itb.walker            0                       # Number of write requests responded to by this memory
system.physmem.num_writes::switch_cpus3.inst            0                       # Number of write requests responded to by this memory
system.physmem.num_writes::switch_cpus3.data            0                       # Number of write requests responded to by this memory
system.physmem.num_writes::cpu0.dtb.walker            0                       # Number of write requests responded to by this memory
system.physmem.num_writes::cpu0.itb.walker            0                       # Number of write requests responded to by this memory
system.physmem.num_writes::cpu0.inst                0                       # Number of write requests responded to by this memory
system.physmem.num_writes::cpu0.data                0                       # Number of write requests responded to by this memory
system.physmem.num_writes::cpu1.dtb.walker            0                       # Number of write requests responded to by this memory
system.physmem.num_writes::cpu1.itb.walker            0                       # Number of write requests responded to by this memory
system.physmem.num_writes::cpu1.inst                0                       # Number of write requests responded to by this memory
system.physmem.num_writes::cpu1.data                0                       # Number of write requests responded to by this memory
system.physmem.num_writes::cpu2.dtb.walker            0                       # Number of write requests responded to by this memory
system.physmem.num_writes::cpu2.itb.walker            0                       # Number of write requests responded to by this memory
system.physmem.num_writes::cpu2.inst                0                       # Number of write requests responded to by this memory
system.physmem.num_writes::cpu2.data                0                       # Number of write requests responded to by this memory
system.physmem.num_writes::cpu3.dtb.walker            0                       # Number of write requests responded to by this memory
system.physmem.num_writes::cpu3.itb.walker            0                       # Number of write requests responded to by this memory
system.physmem.num_writes::cpu3.inst                0                       # Number of write requests responded to by this memory
system.physmem.num_writes::cpu3.data                0                       # Number of write requests responded to by this memory
system.physmem.num_writes::total                14524                       # Number of write requests responded to by this memory
system.physmem.bw_read::switch_cpus0.inst        60341                       # Total read bandwidth from this memory (bytes/s)
system.physmem.bw_read::switch_cpus0.data     54408626                       # Total read bandwidth from this memory (bytes/s)
system.physmem.bw_read::switch_cpus1.inst        49027                       # Total read bandwidth from this memory (bytes/s)
system.physmem.bw_read::switch_cpus1.data     67136783                       # Total read bandwidth from this memory (bytes/s)
system.physmem.bw_read::switch_cpus2.inst        52798                       # Total read bandwidth from this memory (bytes/s)
system.physmem.bw_read::switch_cpus2.data     18143751                       # Total read bandwidth from this memory (bytes/s)
system.physmem.bw_read::switch_cpus3.inst        49027                       # Total read bandwidth from this memory (bytes/s)
system.physmem.bw_read::switch_cpus3.data     33406225                       # Total read bandwidth from this memory (bytes/s)
system.physmem.bw_read::total               173306579                       # Total read bandwidth from this memory (bytes/s)
system.physmem.bw_inst_read::switch_cpus0.inst        60341                       # Instruction read bandwidth from this memory (bytes/s)
system.physmem.bw_inst_read::switch_cpus1.inst        49027                       # Instruction read bandwidth from this memory (bytes/s)
system.physmem.bw_inst_read::switch_cpus2.inst        52798                       # Instruction read bandwidth from this memory (bytes/s)
system.physmem.bw_inst_read::switch_cpus3.inst        49027                       # Instruction read bandwidth from this memory (bytes/s)
system.physmem.bw_inst_read::total             211193                       # Instruction read bandwidth from this memory (bytes/s)
system.physmem.bw_write::writebacks          54774443                       # Write bandwidth from this memory (bytes/s)
system.physmem.bw_write::total               54774443                       # Write bandwidth from this memory (bytes/s)
system.physmem.bw_total::writebacks          54774443                       # Total bandwidth to/from this memory (bytes/s)
system.physmem.bw_total::switch_cpus0.inst        60341                       # Total bandwidth to/from this memory (bytes/s)
system.physmem.bw_total::switch_cpus0.data     54408626                       # Total bandwidth to/from this memory (bytes/s)
system.physmem.bw_total::switch_cpus1.inst        49027                       # Total bandwidth to/from this memory (bytes/s)
system.physmem.bw_total::switch_cpus1.data     67136783                       # Total bandwidth to/from this memory (bytes/s)
system.physmem.bw_total::switch_cpus2.inst        52798                       # Total bandwidth to/from this memory (bytes/s)
system.physmem.bw_total::switch_cpus2.data     18143751                       # Total bandwidth to/from this memory (bytes/s)
system.physmem.bw_total::switch_cpus3.inst        49027                       # Total bandwidth to/from this memory (bytes/s)
system.physmem.bw_total::switch_cpus3.data     33406225                       # Total bandwidth to/from this memory (bytes/s)
system.physmem.bw_total::total              228081022                       # Total bandwidth to/from this memory (bytes/s)
system.switch_cpus0.dtb.inst_hits                   0                       # ITB inst hits
system.switch_cpus0.dtb.inst_misses                 0                       # ITB inst misses
system.switch_cpus0.dtb.read_hits                   0                       # DTB read hits
system.switch_cpus0.dtb.read_misses                 0                       # DTB read misses
system.switch_cpus0.dtb.write_hits                  0                       # DTB write hits
system.switch_cpus0.dtb.write_misses                0                       # DTB write misses
system.switch_cpus0.dtb.flush_tlb                   0                       # Number of times complete TLB was flushed
system.switch_cpus0.dtb.flush_tlb_mva               0                       # Number of times TLB was flushed by MVA
system.switch_cpus0.dtb.flush_tlb_mva_asid            0                       # Number of times TLB was flushed by MVA & ASID
system.switch_cpus0.dtb.flush_tlb_asid              0                       # Number of times TLB was flushed by ASID
system.switch_cpus0.dtb.flush_entries               0                       # Number of entries that have been flushed from TLB
system.switch_cpus0.dtb.align_faults                0                       # Number of TLB faults due to alignment restrictions
system.switch_cpus0.dtb.prefetch_faults             0                       # Number of TLB faults due to prefetch
system.switch_cpus0.dtb.domain_faults               0                       # Number of TLB faults due to domain restrictions
system.switch_cpus0.dtb.perms_faults                0                       # Number of TLB faults due to permissions restrictions
system.switch_cpus0.dtb.read_accesses               0                       # DTB read accesses
system.switch_cpus0.dtb.write_accesses              0                       # DTB write accesses
system.switch_cpus0.dtb.inst_accesses               0                       # ITB inst accesses
system.switch_cpus0.dtb.hits                        0                       # DTB hits
system.switch_cpus0.dtb.misses                      0                       # DTB misses
system.switch_cpus0.dtb.accesses                    0                       # DTB accesses
system.switch_cpus0.itb.inst_hits                   0                       # ITB inst hits
system.switch_cpus0.itb.inst_misses                 0                       # ITB inst misses
system.switch_cpus0.itb.read_hits                   0                       # DTB read hits
system.switch_cpus0.itb.read_misses                 0                       # DTB read misses
system.switch_cpus0.itb.write_hits                  0                       # DTB write hits
system.switch_cpus0.itb.write_misses                0                       # DTB write misses
system.switch_cpus0.itb.flush_tlb                   0                       # Number of times complete TLB was flushed
system.switch_cpus0.itb.flush_tlb_mva               0                       # Number of times TLB was flushed by MVA
system.switch_cpus0.itb.flush_tlb_mva_asid            0                       # Number of times TLB was flushed by MVA & ASID
system.switch_cpus0.itb.flush_tlb_asid              0                       # Number of times TLB was flushed by ASID
system.switch_cpus0.itb.flush_entries               0                       # Number of entries that have been flushed from TLB
system.switch_cpus0.itb.align_faults                0                       # Number of TLB faults due to alignment restrictions
system.switch_cpus0.itb.prefetch_faults             0                       # Number of TLB faults due to prefetch
system.switch_cpus0.itb.domain_faults               0                       # Number of TLB faults due to domain restrictions
system.switch_cpus0.itb.perms_faults                0                       # Number of TLB faults due to permissions restrictions
system.switch_cpus0.itb.read_accesses               0                       # DTB read accesses
system.switch_cpus0.itb.write_accesses              0                       # DTB write accesses
system.switch_cpus0.itb.inst_accesses               0                       # ITB inst accesses
system.switch_cpus0.itb.hits                        0                       # DTB hits
system.switch_cpus0.itb.misses                      0                       # DTB misses
system.switch_cpus0.itb.accesses                    0                       # DTB accesses
system.cpu0.workload.num_syscalls                   0                       # Number of system calls
system.switch_cpus0.numCycles                81392088                       # number of cpu cycles simulated
system.switch_cpus0.numWorkItemsStarted             0                       # number of work items this cpu started
system.switch_cpus0.numWorkItemsCompleted            0                       # number of work items this cpu completed
system.switch_cpus0.BPredUnit.lookups        28437433                       # Number of BP lookups
system.switch_cpus0.BPredUnit.condPredicted     24865195                       # Number of conditional branches predicted
system.switch_cpus0.BPredUnit.condIncorrect      1801941                       # Number of conditional branches incorrect
system.switch_cpus0.BPredUnit.BTBLookups     14148504                       # Number of BTB lookups
system.switch_cpus0.BPredUnit.BTBHits        13670846                       # Number of BTB hits
system.switch_cpus0.BPredUnit.BTBCorrect            0                       # Number of correct BTB predictions (this stat may not work properly.
system.switch_cpus0.BPredUnit.usedRAS         2045330                       # Number of times the RAS was used to get a target.
system.switch_cpus0.BPredUnit.RASInCorrect        56606                       # Number of incorrect RAS predictions.
system.switch_cpus0.fetch.icacheStallCycles     33527803                       # Number of cycles fetch is stalled on an Icache miss
system.switch_cpus0.fetch.Insts             158214370                       # Number of instructions fetch has processed
system.switch_cpus0.fetch.Branches           28437433                       # Number of branches that fetch encountered
system.switch_cpus0.fetch.predictedBranches     15716176                       # Number of branches that fetch has predicted taken
system.switch_cpus0.fetch.Cycles             32566661                       # Number of cycles fetch has run and was not squashing or blocked
system.switch_cpus0.fetch.SquashCycles        8849355                       # Number of cycles fetch has spent squashing
system.switch_cpus0.fetch.BlockedCycles       4224957                       # Number of cycles fetch has spent blocked
system.switch_cpus0.fetch.PendingTrapStallCycles           18                       # Number of stall cycles due to pending traps
system.switch_cpus0.fetch.CacheLines         16527667                       # Number of cache lines fetched
system.switch_cpus0.fetch.IcacheSquashes       715270                       # Number of outstanding Icache misses that were squashed
system.switch_cpus0.fetch.rateDist::samples     77356594                       # Number of instructions fetched each cycle (Total)
system.switch_cpus0.fetch.rateDist::mean     2.354359                       # Number of instructions fetched each cycle (Total)
system.switch_cpus0.fetch.rateDist::stdev     3.168022                       # Number of instructions fetched each cycle (Total)
system.switch_cpus0.fetch.rateDist::underflows            0      0.00%      0.00% # Number of instructions fetched each cycle (Total)
system.switch_cpus0.fetch.rateDist::0        44789933     57.90%     57.90% # Number of instructions fetched each cycle (Total)
system.switch_cpus0.fetch.rateDist::1         1613569      2.09%     59.99% # Number of instructions fetched each cycle (Total)
system.switch_cpus0.fetch.rateDist::2         2947884      3.81%     63.80% # Number of instructions fetched each cycle (Total)
system.switch_cpus0.fetch.rateDist::3         2768293      3.58%     67.38% # Number of instructions fetched each cycle (Total)
system.switch_cpus0.fetch.rateDist::4         4557496      5.89%     73.27% # Number of instructions fetched each cycle (Total)
system.switch_cpus0.fetch.rateDist::5         4750979      6.14%     79.41% # Number of instructions fetched each cycle (Total)
system.switch_cpus0.fetch.rateDist::6         1126921      1.46%     80.87% # Number of instructions fetched each cycle (Total)
system.switch_cpus0.fetch.rateDist::7          847548      1.10%     81.96% # Number of instructions fetched each cycle (Total)
system.switch_cpus0.fetch.rateDist::8        13953971     18.04%    100.00% # Number of instructions fetched each cycle (Total)
system.switch_cpus0.fetch.rateDist::overflows            0      0.00%    100.00% # Number of instructions fetched each cycle (Total)
system.switch_cpus0.fetch.rateDist::min_value            0                       # Number of instructions fetched each cycle (Total)
system.switch_cpus0.fetch.rateDist::max_value            8                       # Number of instructions fetched each cycle (Total)
system.switch_cpus0.fetch.rateDist::total     77356594                       # Number of instructions fetched each cycle (Total)
system.switch_cpus0.fetch.branchRate         0.349388                       # Number of branch fetches per cycle
system.switch_cpus0.fetch.rate               1.943854                       # Number of inst fetches per cycle
system.switch_cpus0.decode.IdleCycles        34583891                       # Number of cycles decode is idle
system.switch_cpus0.decode.BlockedCycles      4095222                       # Number of cycles decode is blocked
system.switch_cpus0.decode.RunCycles         31519972                       # Number of cycles decode is running
system.switch_cpus0.decode.UnblockCycles       125535                       # Number of cycles decode is unblocking
system.switch_cpus0.decode.SquashCycles       7031964                       # Number of cycles decode is squashing
system.switch_cpus0.decode.BranchResolved      3095713                       # Number of times decode resolved a branch
system.switch_cpus0.decode.BranchMispred         5205                       # Number of times decode detected a branch misprediction
system.switch_cpus0.decode.DecodedInsts     177029782                       # Number of instructions handled by decode
system.switch_cpus0.decode.SquashedInsts         1387                       # Number of squashed instructions handled by decode
system.switch_cpus0.rename.SquashCycles       7031964                       # Number of cycles rename is squashing
system.switch_cpus0.rename.IdleCycles        36036922                       # Number of cycles rename is idle
system.switch_cpus0.rename.BlockCycles        1644995                       # Number of cycles rename is blocking
system.switch_cpus0.rename.serializeStallCycles       445142                       # count of cycles rename stalled for serializing inst
system.switch_cpus0.rename.RunCycles         30180058                       # Number of cycles rename is running
system.switch_cpus0.rename.UnblockCycles      2017504                       # Number of cycles rename is unblocking
system.switch_cpus0.rename.RenamedInsts     172370762                       # Number of instructions processed by rename
system.switch_cpus0.rename.ROBFullEvents           22                       # Number of times rename has blocked due to ROB full
system.switch_cpus0.rename.IQFullEvents        689344                       # Number of times rename has blocked due to IQ full
system.switch_cpus0.rename.LSQFullEvents       817183                       # Number of times rename has blocked due to LSQ full
system.switch_cpus0.rename.RenamedOperands    228898697                       # Number of destination operands rename has renamed
system.switch_cpus0.rename.RenameLookups    784554394                       # Number of register rename lookups that rename has made
system.switch_cpus0.rename.int_rename_lookups    784554394                       # Number of integer rename lookups
system.switch_cpus0.rename.CommittedMaps    148896166                       # Number of HB maps that are committed
system.switch_cpus0.rename.UndoneMaps        80002414                       # Number of HB maps that are undone due to squashing
system.switch_cpus0.rename.serializingInsts        20374                       # count of serializing insts renamed
system.switch_cpus0.rename.tempSerializingInsts         9944                       # count of temporary serializing insts renamed
system.switch_cpus0.rename.skidInsts          5394358                       # count of insts added to the skid buffer
system.switch_cpus0.memDep0.insertedLoads     26501039                       # Number of loads inserted to the mem dependence unit.
system.switch_cpus0.memDep0.insertedStores      5762547                       # Number of stores inserted to the mem dependence unit.
system.switch_cpus0.memDep0.conflictingLoads        95880                       # Number of conflicting loads.
system.switch_cpus0.memDep0.conflictingStores      1804404                       # Number of conflicting stores.
system.switch_cpus0.iq.iqInstsAdded         163123595                       # Number of instructions added to the IQ (excludes non-spec)
system.switch_cpus0.iq.iqNonSpecInstsAdded        19866                       # Number of non-speculative instructions added to the IQ
system.switch_cpus0.iq.iqInstsIssued        137689313                       # Number of instructions issued
system.switch_cpus0.iq.iqSquashedInstsIssued       183513                       # Number of squashed instructions issued
system.switch_cpus0.iq.iqSquashedInstsExamined     48945710                       # Number of squashed instructions iterated over during squash; mainly for profiling
system.switch_cpus0.iq.iqSquashedOperandsExamined    134338948                       # Number of squashed operands that are examined and possibly removed from graph
system.switch_cpus0.iq.iqSquashedNonSpecRemoved           22                       # Number of squashed non-spec instructions that were removed
system.switch_cpus0.iq.issued_per_cycle::samples     77356594                       # Number of insts issued each cycle
system.switch_cpus0.iq.issued_per_cycle::mean     1.779930                       # Number of insts issued each cycle
system.switch_cpus0.iq.issued_per_cycle::stdev     1.841226                       # Number of insts issued each cycle
system.switch_cpus0.iq.issued_per_cycle::underflows            0      0.00%      0.00% # Number of insts issued each cycle
system.switch_cpus0.iq.issued_per_cycle::0     26995301     34.90%     34.90% # Number of insts issued each cycle
system.switch_cpus0.iq.issued_per_cycle::1     14425858     18.65%     53.55% # Number of insts issued each cycle
system.switch_cpus0.iq.issued_per_cycle::2     12458817     16.11%     69.65% # Number of insts issued each cycle
system.switch_cpus0.iq.issued_per_cycle::3      7676787      9.92%     79.58% # Number of insts issued each cycle
system.switch_cpus0.iq.issued_per_cycle::4      8042193     10.40%     89.97% # Number of insts issued each cycle
system.switch_cpus0.iq.issued_per_cycle::5      4722119      6.10%     96.08% # Number of insts issued each cycle
system.switch_cpus0.iq.issued_per_cycle::6      2096100      2.71%     98.79% # Number of insts issued each cycle
system.switch_cpus0.iq.issued_per_cycle::7       555859      0.72%     99.50% # Number of insts issued each cycle
system.switch_cpus0.iq.issued_per_cycle::8       383560      0.50%    100.00% # Number of insts issued each cycle
system.switch_cpus0.iq.issued_per_cycle::overflows            0      0.00%    100.00% # Number of insts issued each cycle
system.switch_cpus0.iq.issued_per_cycle::min_value            0                       # Number of insts issued each cycle
system.switch_cpus0.iq.issued_per_cycle::max_value            8                       # Number of insts issued each cycle
system.switch_cpus0.iq.issued_per_cycle::total     77356594                       # Number of insts issued each cycle
system.switch_cpus0.iq.fu_full::No_OpClass            0      0.00%      0.00% # attempts to use FU when none available
system.switch_cpus0.iq.fu_full::IntAlu         542524     66.24%     66.24% # attempts to use FU when none available
system.switch_cpus0.iq.fu_full::IntMult             0      0.00%     66.24% # attempts to use FU when none available
system.switch_cpus0.iq.fu_full::IntDiv              0      0.00%     66.24% # attempts to use FU when none available
system.switch_cpus0.iq.fu_full::FloatAdd            0      0.00%     66.24% # attempts to use FU when none available
system.switch_cpus0.iq.fu_full::FloatCmp            0      0.00%     66.24% # attempts to use FU when none available
system.switch_cpus0.iq.fu_full::FloatCvt            0      0.00%     66.24% # attempts to use FU when none available
system.switch_cpus0.iq.fu_full::FloatMult            0      0.00%     66.24% # attempts to use FU when none available
system.switch_cpus0.iq.fu_full::FloatDiv            0      0.00%     66.24% # attempts to use FU when none available
system.switch_cpus0.iq.fu_full::FloatSqrt            0      0.00%     66.24% # attempts to use FU when none available
system.switch_cpus0.iq.fu_full::SimdAdd             0      0.00%     66.24% # attempts to use FU when none available
system.switch_cpus0.iq.fu_full::SimdAddAcc            0      0.00%     66.24% # attempts to use FU when none available
system.switch_cpus0.iq.fu_full::SimdAlu             0      0.00%     66.24% # attempts to use FU when none available
system.switch_cpus0.iq.fu_full::SimdCmp             0      0.00%     66.24% # attempts to use FU when none available
system.switch_cpus0.iq.fu_full::SimdCvt             0      0.00%     66.24% # attempts to use FU when none available
system.switch_cpus0.iq.fu_full::SimdMisc            0      0.00%     66.24% # attempts to use FU when none available
system.switch_cpus0.iq.fu_full::SimdMult            0      0.00%     66.24% # attempts to use FU when none available
system.switch_cpus0.iq.fu_full::SimdMultAcc            0      0.00%     66.24% # attempts to use FU when none available
system.switch_cpus0.iq.fu_full::SimdShift            0      0.00%     66.24% # attempts to use FU when none available
system.switch_cpus0.iq.fu_full::SimdShiftAcc            0      0.00%     66.24% # attempts to use FU when none available
system.switch_cpus0.iq.fu_full::SimdSqrt            0      0.00%     66.24% # attempts to use FU when none available
system.switch_cpus0.iq.fu_full::SimdFloatAdd            0      0.00%     66.24% # attempts to use FU when none available
system.switch_cpus0.iq.fu_full::SimdFloatAlu            0      0.00%     66.24% # attempts to use FU when none available
system.switch_cpus0.iq.fu_full::SimdFloatCmp            0      0.00%     66.24% # attempts to use FU when none available
system.switch_cpus0.iq.fu_full::SimdFloatCvt            0      0.00%     66.24% # attempts to use FU when none available
system.switch_cpus0.iq.fu_full::SimdFloatDiv            0      0.00%     66.24% # attempts to use FU when none available
system.switch_cpus0.iq.fu_full::SimdFloatMisc            0      0.00%     66.24% # attempts to use FU when none available
system.switch_cpus0.iq.fu_full::SimdFloatMult            0      0.00%     66.24% # attempts to use FU when none available
system.switch_cpus0.iq.fu_full::SimdFloatMultAcc            0      0.00%     66.24% # attempts to use FU when none available
system.switch_cpus0.iq.fu_full::SimdFloatSqrt            0      0.00%     66.24% # attempts to use FU when none available
system.switch_cpus0.iq.fu_full::MemRead        175129     21.38%     87.63% # attempts to use FU when none available
system.switch_cpus0.iq.fu_full::MemWrite       101351     12.37%    100.00% # attempts to use FU when none available
system.switch_cpus0.iq.fu_full::IprAccess            0      0.00%    100.00% # attempts to use FU when none available
system.switch_cpus0.iq.fu_full::InstPrefetch            0      0.00%    100.00% # attempts to use FU when none available
system.switch_cpus0.iq.FU_type_0::No_OpClass            0      0.00%      0.00% # Type of FU issued
system.switch_cpus0.iq.FU_type_0::IntAlu    107997506     78.44%     78.44% # Type of FU issued
system.switch_cpus0.iq.FU_type_0::IntMult      1085351      0.79%     79.22% # Type of FU issued
system.switch_cpus0.iq.FU_type_0::IntDiv            0      0.00%     79.22% # Type of FU issued
system.switch_cpus0.iq.FU_type_0::FloatAdd            0      0.00%     79.22% # Type of FU issued
system.switch_cpus0.iq.FU_type_0::FloatCmp            0      0.00%     79.22% # Type of FU issued
system.switch_cpus0.iq.FU_type_0::FloatCvt            0      0.00%     79.22% # Type of FU issued
system.switch_cpus0.iq.FU_type_0::FloatMult            0      0.00%     79.22% # Type of FU issued
system.switch_cpus0.iq.FU_type_0::FloatDiv            0      0.00%     79.22% # Type of FU issued
system.switch_cpus0.iq.FU_type_0::FloatSqrt            0      0.00%     79.22% # Type of FU issued
system.switch_cpus0.iq.FU_type_0::SimdAdd            0      0.00%     79.22% # Type of FU issued
system.switch_cpus0.iq.FU_type_0::SimdAddAcc            0      0.00%     79.22% # Type of FU issued
system.switch_cpus0.iq.FU_type_0::SimdAlu            0      0.00%     79.22% # Type of FU issued
system.switch_cpus0.iq.FU_type_0::SimdCmp            0      0.00%     79.22% # Type of FU issued
system.switch_cpus0.iq.FU_type_0::SimdCvt            0      0.00%     79.22% # Type of FU issued
system.switch_cpus0.iq.FU_type_0::SimdMisc            0      0.00%     79.22% # Type of FU issued
system.switch_cpus0.iq.FU_type_0::SimdMult            0      0.00%     79.22% # Type of FU issued
system.switch_cpus0.iq.FU_type_0::SimdMultAcc            0      0.00%     79.22% # Type of FU issued
system.switch_cpus0.iq.FU_type_0::SimdShift            0      0.00%     79.22% # Type of FU issued
system.switch_cpus0.iq.FU_type_0::SimdShiftAcc            0      0.00%     79.22% # Type of FU issued
system.switch_cpus0.iq.FU_type_0::SimdSqrt            0      0.00%     79.22% # Type of FU issued
system.switch_cpus0.iq.FU_type_0::SimdFloatAdd            0      0.00%     79.22% # Type of FU issued
system.switch_cpus0.iq.FU_type_0::SimdFloatAlu            0      0.00%     79.22% # Type of FU issued
system.switch_cpus0.iq.FU_type_0::SimdFloatCmp            0      0.00%     79.22% # Type of FU issued
system.switch_cpus0.iq.FU_type_0::SimdFloatCvt            0      0.00%     79.22% # Type of FU issued
system.switch_cpus0.iq.FU_type_0::SimdFloatDiv            0      0.00%     79.22% # Type of FU issued
system.switch_cpus0.iq.FU_type_0::SimdFloatMisc         9921      0.01%     79.23% # Type of FU issued
system.switch_cpus0.iq.FU_type_0::SimdFloatMult            0      0.00%     79.23% # Type of FU issued
system.switch_cpus0.iq.FU_type_0::SimdFloatMultAcc            0      0.00%     79.23% # Type of FU issued
system.switch_cpus0.iq.FU_type_0::SimdFloatSqrt            0      0.00%     79.23% # Type of FU issued
system.switch_cpus0.iq.FU_type_0::MemRead     23694256     17.21%     96.44% # Type of FU issued
system.switch_cpus0.iq.FU_type_0::MemWrite      4902279      3.56%    100.00% # Type of FU issued
system.switch_cpus0.iq.FU_type_0::IprAccess            0      0.00%    100.00% # Type of FU issued
system.switch_cpus0.iq.FU_type_0::InstPrefetch            0      0.00%    100.00% # Type of FU issued
system.switch_cpus0.iq.FU_type_0::total     137689313                       # Type of FU issued
system.switch_cpus0.iq.rate                  1.691679                       # Inst issue rate
system.switch_cpus0.iq.fu_busy_cnt             819004                       # FU busy when requested
system.switch_cpus0.iq.fu_busy_rate          0.005948                       # FU busy rate (busy events/executed inst)
system.switch_cpus0.iq.int_inst_queue_reads    353737733                       # Number of integer instruction queue reads
system.switch_cpus0.iq.int_inst_queue_writes    212089588                       # Number of integer instruction queue writes
system.switch_cpus0.iq.int_inst_queue_wakeup_accesses    133191184                       # Number of integer instruction queue wakeup accesses
system.switch_cpus0.iq.fp_inst_queue_reads            0                       # Number of floating instruction queue reads
system.switch_cpus0.iq.fp_inst_queue_writes            0                       # Number of floating instruction queue writes
system.switch_cpus0.iq.fp_inst_queue_wakeup_accesses            0                       # Number of floating instruction queue wakeup accesses
system.switch_cpus0.iq.int_alu_accesses     138508317                       # Number of integer alu accesses
system.switch_cpus0.iq.fp_alu_accesses              0                       # Number of floating point alu accesses
system.switch_cpus0.iew.lsq.thread0.forwLoads       338152                       # Number of loads that had data forwarded from stores
system.switch_cpus0.iew.lsq.thread0.invAddrLoads            0                       # Number of loads ignored due to an invalid address
system.switch_cpus0.iew.lsq.thread0.squashedLoads      7570965                       # Number of loads squashed
system.switch_cpus0.iew.lsq.thread0.ignoredResponses          835                       # Number of memory responses ignored because the instruction is squashed
system.switch_cpus0.iew.lsq.thread0.memOrderViolation          418                       # Number of memory ordering violations
system.switch_cpus0.iew.lsq.thread0.squashedStores      1409189                       # Number of stores squashed
system.switch_cpus0.iew.lsq.thread0.invAddrSwpfs            0                       # Number of software prefetches ignored due to an invalid address
system.switch_cpus0.iew.lsq.thread0.blockedLoads            0                       # Number of blocked loads due to partial load-store forwarding
system.switch_cpus0.iew.lsq.thread0.rescheduledLoads            0                       # Number of loads that were rescheduled
system.switch_cpus0.iew.lsq.thread0.cacheBlocked            0                       # Number of times an access to memory failed due to the cache being blocked
system.switch_cpus0.iew.iewIdleCycles               0                       # Number of cycles IEW is idle
system.switch_cpus0.iew.iewSquashCycles       7031964                       # Number of cycles IEW is squashing
system.switch_cpus0.iew.iewBlockCycles        1049004                       # Number of cycles IEW is blocking
system.switch_cpus0.iew.iewUnblockCycles        59076                       # Number of cycles IEW is unblocking
system.switch_cpus0.iew.iewDispatchedInsts    163143464                       # Number of instructions dispatched to IQ
system.switch_cpus0.iew.iewDispSquashedInsts       190598                       # Number of squashed instructions skipped by dispatch
system.switch_cpus0.iew.iewDispLoadInsts     26501039                       # Number of dispatched load instructions
system.switch_cpus0.iew.iewDispStoreInsts      5762547                       # Number of dispatched store instructions
system.switch_cpus0.iew.iewDispNonSpecInsts         9944                       # Number of dispatched non-speculative instructions
system.switch_cpus0.iew.iewIQFullEvents         30121                       # Number of times the IQ has become full, causing a stall
system.switch_cpus0.iew.iewLSQFullEvents          210                       # Number of times the LSQ has become full, causing a stall
system.switch_cpus0.iew.memOrderViolationEvents          418                       # Number of memory order violations
system.switch_cpus0.iew.predictedTakenIncorrect       958514                       # Number of branches that were predicted taken incorrectly
system.switch_cpus0.iew.predictedNotTakenIncorrect      1063267                       # Number of branches that were predicted not taken incorrectly
system.switch_cpus0.iew.branchMispredicts      2021781                       # Number of branch mispredicts detected at execute
system.switch_cpus0.iew.iewExecutedInsts    135111903                       # Number of executed instructions
system.switch_cpus0.iew.iewExecLoadInsts     22772599                       # Number of load instructions executed
system.switch_cpus0.iew.iewExecSquashedInsts      2577406                       # Number of squashed instructions skipped in execute
system.switch_cpus0.iew.exec_swp                    0                       # number of swp insts executed
system.switch_cpus0.iew.exec_nop                    3                       # number of nop insts executed
system.switch_cpus0.iew.exec_refs            27554458                       # number of memory reference insts executed
system.switch_cpus0.iew.exec_branches        20418871                       # Number of branches executed
system.switch_cpus0.iew.exec_stores           4781859                       # Number of stores executed
system.switch_cpus0.iew.exec_rate            1.660013                       # Inst execution rate
system.switch_cpus0.iew.wb_sent             133340746                       # cumulative count of insts sent to commit
system.switch_cpus0.iew.wb_count            133191184                       # cumulative count of insts written-back
system.switch_cpus0.iew.wb_producers         81829662                       # num instructions producing a value
system.switch_cpus0.iew.wb_consumers        199713193                       # num instructions consuming a value
system.switch_cpus0.iew.wb_penalized                0                       # number of instrctions required to write to 'other' IQ
system.switch_cpus0.iew.wb_rate              1.636414                       # insts written-back per cycle
system.switch_cpus0.iew.wb_fanout            0.409736                       # average fanout of values written-back
system.switch_cpus0.iew.wb_penalized_rate            0                       # fraction of instructions written-back that wrote to 'other' IQ
system.switch_cpus0.commit.commitCommittedInsts    100000006                       # The number of committed instructions
system.switch_cpus0.commit.commitCommittedOps    113611589                       # The number of committed instructions
system.switch_cpus0.commit.commitSquashedInsts     49532493                       # The number of squashed insts skipped by commit
system.switch_cpus0.commit.commitNonSpecStalls        19844                       # The number of times commit has been forced to stall to communicate backwards
system.switch_cpus0.commit.branchMispredicts      1806700                       # The number of times a branch was mispredicted
system.switch_cpus0.commit.committed_per_cycle::samples     70324630                       # Number of insts commited each cycle
system.switch_cpus0.commit.committed_per_cycle::mean     1.615531                       # Number of insts commited each cycle
system.switch_cpus0.commit.committed_per_cycle::stdev     2.316840                       # Number of insts commited each cycle
system.switch_cpus0.commit.committed_per_cycle::underflows            0      0.00%      0.00% # Number of insts commited each cycle
system.switch_cpus0.commit.committed_per_cycle::0     32514354     46.23%     46.23% # Number of insts commited each cycle
system.switch_cpus0.commit.committed_per_cycle::1     14847920     21.11%     67.35% # Number of insts commited each cycle
system.switch_cpus0.commit.committed_per_cycle::2      8308980     11.82%     79.16% # Number of insts commited each cycle
system.switch_cpus0.commit.committed_per_cycle::3      2816846      4.01%     83.17% # Number of insts commited each cycle
system.switch_cpus0.commit.committed_per_cycle::4      2691775      3.83%     87.00% # Number of insts commited each cycle
system.switch_cpus0.commit.committed_per_cycle::5      1117832      1.59%     88.59% # Number of insts commited each cycle
system.switch_cpus0.commit.committed_per_cycle::6      3001062      4.27%     92.85% # Number of insts commited each cycle
system.switch_cpus0.commit.committed_per_cycle::7       874349      1.24%     94.10% # Number of insts commited each cycle
system.switch_cpus0.commit.committed_per_cycle::8      4151512      5.90%    100.00% # Number of insts commited each cycle
system.switch_cpus0.commit.committed_per_cycle::overflows            0      0.00%    100.00% # Number of insts commited each cycle
system.switch_cpus0.commit.committed_per_cycle::min_value            0                       # Number of insts commited each cycle
system.switch_cpus0.commit.committed_per_cycle::max_value            8                       # Number of insts commited each cycle
system.switch_cpus0.commit.committed_per_cycle::total     70324630                       # Number of insts commited each cycle
system.switch_cpus0.commit.committedInsts    100000006                       # Number of instructions committed
system.switch_cpus0.commit.committedOps     113611589                       # Number of ops (including micro ops) committed
system.switch_cpus0.commit.swp_count                0                       # Number of s/w prefetches committed
system.switch_cpus0.commit.refs              23283426                       # Number of memory references committed
system.switch_cpus0.commit.loads             18930071                       # Number of loads committed
system.switch_cpus0.commit.membars               9922                       # Number of memory barriers committed
system.switch_cpus0.commit.branches          17789106                       # Number of branches committed
system.switch_cpus0.commit.fp_insts                 0                       # Number of committed floating point instructions.
system.switch_cpus0.commit.int_insts         99179499                       # Number of committed integer instructions.
system.switch_cpus0.commit.function_calls      1536069                       # Number of function calls committed.
system.switch_cpus0.commit.bw_lim_events      4151512                       # number cycles where commit BW limit reached
system.switch_cpus0.commit.bw_limited               0                       # number of insts not committed due to BW limits
system.switch_cpus0.rob.rob_reads           229317200                       # The number of ROB reads
system.switch_cpus0.rob.rob_writes          333325943                       # The number of ROB writes
system.switch_cpus0.timesIdled                  30685                       # Number of times that the entire CPU went into an idle state and unscheduled itself
system.switch_cpus0.idleCycles                4035494                       # Total number of cycles that the CPU has spent unscheduled due to idling
system.switch_cpus0.committedInsts          100000006                       # Number of Instructions Simulated
system.switch_cpus0.committedOps            113611589                       # Number of Ops (including micro ops) Simulated
system.switch_cpus0.committedInsts_total    100000006                       # Number of Instructions Simulated
system.switch_cpus0.cpi                      0.813921                       # CPI: Cycles Per Instruction
system.switch_cpus0.cpi_total                0.813921                       # CPI: Total CPI of All Threads
system.switch_cpus0.ipc                      1.228621                       # IPC: Instructions Per Cycle
system.switch_cpus0.ipc_total                1.228621                       # IPC: Total IPC of All Threads
system.switch_cpus0.int_regfile_reads       624981763                       # number of integer regfile reads
system.switch_cpus0.int_regfile_writes      174587650                       # number of integer regfile writes
system.switch_cpus0.misc_regfile_reads      182453515                       # number of misc regfile reads
system.switch_cpus0.misc_regfile_writes         19844                       # number of misc regfile writes
system.switch_cpus1.dtb.inst_hits                   0                       # ITB inst hits
system.switch_cpus1.dtb.inst_misses                 0                       # ITB inst misses
system.switch_cpus1.dtb.read_hits                   0                       # DTB read hits
system.switch_cpus1.dtb.read_misses                 0                       # DTB read misses
system.switch_cpus1.dtb.write_hits                  0                       # DTB write hits
system.switch_cpus1.dtb.write_misses                0                       # DTB write misses
system.switch_cpus1.dtb.flush_tlb                   0                       # Number of times complete TLB was flushed
system.switch_cpus1.dtb.flush_tlb_mva               0                       # Number of times TLB was flushed by MVA
system.switch_cpus1.dtb.flush_tlb_mva_asid            0                       # Number of times TLB was flushed by MVA & ASID
system.switch_cpus1.dtb.flush_tlb_asid              0                       # Number of times TLB was flushed by ASID
system.switch_cpus1.dtb.flush_entries               0                       # Number of entries that have been flushed from TLB
system.switch_cpus1.dtb.align_faults                0                       # Number of TLB faults due to alignment restrictions
system.switch_cpus1.dtb.prefetch_faults             0                       # Number of TLB faults due to prefetch
system.switch_cpus1.dtb.domain_faults               0                       # Number of TLB faults due to domain restrictions
system.switch_cpus1.dtb.perms_faults                0                       # Number of TLB faults due to permissions restrictions
system.switch_cpus1.dtb.read_accesses               0                       # DTB read accesses
system.switch_cpus1.dtb.write_accesses              0                       # DTB write accesses
system.switch_cpus1.dtb.inst_accesses               0                       # ITB inst accesses
system.switch_cpus1.dtb.hits                        0                       # DTB hits
system.switch_cpus1.dtb.misses                      0                       # DTB misses
system.switch_cpus1.dtb.accesses                    0                       # DTB accesses
system.switch_cpus1.itb.inst_hits                   0                       # ITB inst hits
system.switch_cpus1.itb.inst_misses                 0                       # ITB inst misses
system.switch_cpus1.itb.read_hits                   0                       # DTB read hits
system.switch_cpus1.itb.read_misses                 0                       # DTB read misses
system.switch_cpus1.itb.write_hits                  0                       # DTB write hits
system.switch_cpus1.itb.write_misses                0                       # DTB write misses
system.switch_cpus1.itb.flush_tlb                   0                       # Number of times complete TLB was flushed
system.switch_cpus1.itb.flush_tlb_mva               0                       # Number of times TLB was flushed by MVA
system.switch_cpus1.itb.flush_tlb_mva_asid            0                       # Number of times TLB was flushed by MVA & ASID
system.switch_cpus1.itb.flush_tlb_asid              0                       # Number of times TLB was flushed by ASID
system.switch_cpus1.itb.flush_entries               0                       # Number of entries that have been flushed from TLB
system.switch_cpus1.itb.align_faults                0                       # Number of TLB faults due to alignment restrictions
system.switch_cpus1.itb.prefetch_faults             0                       # Number of TLB faults due to prefetch
system.switch_cpus1.itb.domain_faults               0                       # Number of TLB faults due to domain restrictions
system.switch_cpus1.itb.perms_faults                0                       # Number of TLB faults due to permissions restrictions
system.switch_cpus1.itb.read_accesses               0                       # DTB read accesses
system.switch_cpus1.itb.write_accesses              0                       # DTB write accesses
system.switch_cpus1.itb.inst_accesses               0                       # ITB inst accesses
system.switch_cpus1.itb.hits                        0                       # DTB hits
system.switch_cpus1.itb.misses                      0                       # DTB misses
system.switch_cpus1.itb.accesses                    0                       # DTB accesses
system.cpu1.workload.num_syscalls                   0                       # Number of system calls
system.switch_cpus1.numCycles                81392088                       # number of cpu cycles simulated
system.switch_cpus1.numWorkItemsStarted             0                       # number of work items this cpu started
system.switch_cpus1.numWorkItemsCompleted            0                       # number of work items this cpu completed
system.switch_cpus1.BPredUnit.lookups        27981056                       # Number of BP lookups
system.switch_cpus1.BPredUnit.condPredicted     22739352                       # Number of conditional branches predicted
system.switch_cpus1.BPredUnit.condIncorrect      1909850                       # Number of conditional branches incorrect
system.switch_cpus1.BPredUnit.BTBLookups     11736321                       # Number of BTB lookups
system.switch_cpus1.BPredUnit.BTBHits        10917637                       # Number of BTB hits
system.switch_cpus1.BPredUnit.BTBCorrect            0                       # Number of correct BTB predictions (this stat may not work properly.
system.switch_cpus1.BPredUnit.usedRAS         2952517                       # Number of times the RAS was used to get a target.
system.switch_cpus1.BPredUnit.RASInCorrect        80813                       # Number of incorrect RAS predictions.
system.switch_cpus1.fetch.icacheStallCycles     28077162                       # Number of cycles fetch is stalled on an Icache miss
system.switch_cpus1.fetch.Insts             155150196                       # Number of instructions fetch has processed
system.switch_cpus1.fetch.Branches           27981056                       # Number of branches that fetch encountered
system.switch_cpus1.fetch.predictedBranches     13870154                       # Number of branches that fetch has predicted taken
system.switch_cpus1.fetch.Cycles             34127563                       # Number of cycles fetch has run and was not squashing or blocked
system.switch_cpus1.fetch.SquashCycles       10260959                       # Number of cycles fetch has spent squashing
system.switch_cpus1.fetch.BlockedCycles       6994673                       # Number of cycles fetch has spent blocked
system.switch_cpus1.fetch.PendingTrapStallCycles           12                       # Number of stall cycles due to pending traps
system.switch_cpus1.fetch.CacheLines         13752222                       # Number of cache lines fetched
system.switch_cpus1.fetch.IcacheSquashes       821729                       # Number of outstanding Icache misses that were squashed
system.switch_cpus1.fetch.rateDist::samples     77507577                       # Number of instructions fetched each cycle (Total)
system.switch_cpus1.fetch.rateDist::mean     2.473294                       # Number of instructions fetched each cycle (Total)
system.switch_cpus1.fetch.rateDist::stdev     3.294165                       # Number of instructions fetched each cycle (Total)
system.switch_cpus1.fetch.rateDist::underflows            0      0.00%      0.00% # Number of instructions fetched each cycle (Total)
system.switch_cpus1.fetch.rateDist::0        43380014     55.97%     55.97% # Number of instructions fetched each cycle (Total)
system.switch_cpus1.fetch.rateDist::1         2998896      3.87%     59.84% # Number of instructions fetched each cycle (Total)
system.switch_cpus1.fetch.rateDist::2         2421217      3.12%     62.96% # Number of instructions fetched each cycle (Total)
system.switch_cpus1.fetch.rateDist::3         5891483      7.60%     70.56% # Number of instructions fetched each cycle (Total)
system.switch_cpus1.fetch.rateDist::4         1595084      2.06%     72.62% # Number of instructions fetched each cycle (Total)
system.switch_cpus1.fetch.rateDist::5         2055337      2.65%     75.27% # Number of instructions fetched each cycle (Total)
system.switch_cpus1.fetch.rateDist::6         1484257      1.91%     77.19% # Number of instructions fetched each cycle (Total)
system.switch_cpus1.fetch.rateDist::7          829597      1.07%     78.26% # Number of instructions fetched each cycle (Total)
system.switch_cpus1.fetch.rateDist::8        16851692     21.74%    100.00% # Number of instructions fetched each cycle (Total)
system.switch_cpus1.fetch.rateDist::overflows            0      0.00%    100.00% # Number of instructions fetched each cycle (Total)
system.switch_cpus1.fetch.rateDist::min_value            0                       # Number of instructions fetched each cycle (Total)
system.switch_cpus1.fetch.rateDist::max_value            8                       # Number of instructions fetched each cycle (Total)
system.switch_cpus1.fetch.rateDist::total     77507577                       # Number of instructions fetched each cycle (Total)
system.switch_cpus1.fetch.branchRate         0.343781                       # Number of branch fetches per cycle
system.switch_cpus1.fetch.rate               1.906207                       # Number of inst fetches per cycle
system.switch_cpus1.decode.IdleCycles        29376261                       # Number of cycles decode is idle
system.switch_cpus1.decode.BlockedCycles      6824434                       # Number of cycles decode is blocked
system.switch_cpus1.decode.RunCycles         32812208                       # Number of cycles decode is running
system.switch_cpus1.decode.UnblockCycles       224363                       # Number of cycles decode is unblocking
system.switch_cpus1.decode.SquashCycles       8270306                       # Number of cycles decode is squashing
system.switch_cpus1.decode.BranchResolved      4780020                       # Number of times decode resolved a branch
system.switch_cpus1.decode.BranchMispred        38196                       # Number of times decode detected a branch misprediction
system.switch_cpus1.decode.DecodedInsts     185491235                       # Number of instructions handled by decode
system.switch_cpus1.decode.SquashedInsts        74541                       # Number of squashed instructions handled by decode
system.switch_cpus1.rename.SquashCycles       8270306                       # Number of cycles rename is squashing
system.switch_cpus1.rename.IdleCycles        31530881                       # Number of cycles rename is idle
system.switch_cpus1.rename.BlockCycles        1357594                       # Number of cycles rename is blocking
system.switch_cpus1.rename.serializeStallCycles      2288370                       # count of cycles rename stalled for serializing inst
system.switch_cpus1.rename.RunCycles         30831201                       # Number of cycles rename is running
system.switch_cpus1.rename.UnblockCycles      3229220                       # Number of cycles rename is unblocking
system.switch_cpus1.rename.RenamedInsts     178920354                       # Number of instructions processed by rename
system.switch_cpus1.rename.ROBFullEvents        30229                       # Number of times rename has blocked due to ROB full
system.switch_cpus1.rename.IQFullEvents       1338895                       # Number of times rename has blocked due to IQ full
system.switch_cpus1.rename.LSQFullEvents      1004209                       # Number of times rename has blocked due to LSQ full
system.switch_cpus1.rename.FullRegisterEvents         1246                       # Number of times there has been no free registers
system.switch_cpus1.rename.RenamedOperands    250505523                       # Number of destination operands rename has renamed
system.switch_cpus1.rename.RenameLookups    835232213                       # Number of register rename lookups that rename has made
system.switch_cpus1.rename.int_rename_lookups    835232213                       # Number of integer rename lookups
system.switch_cpus1.rename.CommittedMaps    153516030                       # Number of HB maps that are committed
system.switch_cpus1.rename.UndoneMaps        96989437                       # Number of HB maps that are undone due to squashing
system.switch_cpus1.rename.serializingInsts        37089                       # count of serializing insts renamed
system.switch_cpus1.rename.tempSerializingInsts        21003                       # count of temporary serializing insts renamed
system.switch_cpus1.rename.skidInsts          8858615                       # count of insts added to the skid buffer
system.switch_cpus1.memDep0.insertedLoads     16691413                       # Number of loads inserted to the mem dependence unit.
system.switch_cpus1.memDep0.insertedStores      8492076                       # Number of stores inserted to the mem dependence unit.
system.switch_cpus1.memDep0.conflictingLoads       134090                       # Number of conflicting loads.
system.switch_cpus1.memDep0.conflictingStores      2933807                       # Number of conflicting stores.
system.switch_cpus1.iq.iqInstsAdded         169217142                       # Number of instructions added to the IQ (excludes non-spec)
system.switch_cpus1.iq.iqNonSpecInstsAdded        35690                       # Number of non-speculative instructions added to the IQ
system.switch_cpus1.iq.iqInstsIssued        134409468                       # Number of instructions issued
system.switch_cpus1.iq.iqSquashedInstsIssued       263043                       # Number of squashed instructions issued
system.switch_cpus1.iq.iqSquashedInstsExamined     58500233                       # Number of squashed instructions iterated over during squash; mainly for profiling
system.switch_cpus1.iq.iqSquashedOperandsExamined    178595892                       # Number of squashed operands that are examined and possibly removed from graph
system.switch_cpus1.iq.iqSquashedNonSpecRemoved         5954                       # Number of squashed non-spec instructions that were removed
system.switch_cpus1.iq.issued_per_cycle::samples     77507577                       # Number of insts issued each cycle
system.switch_cpus1.iq.issued_per_cycle::mean     1.734146                       # Number of insts issued each cycle
system.switch_cpus1.iq.issued_per_cycle::stdev     1.882976                       # Number of insts issued each cycle
system.switch_cpus1.iq.issued_per_cycle::underflows            0      0.00%      0.00% # Number of insts issued each cycle
system.switch_cpus1.iq.issued_per_cycle::0     27652242     35.68%     35.68% # Number of insts issued each cycle
system.switch_cpus1.iq.issued_per_cycle::1     16412137     21.17%     56.85% # Number of insts issued each cycle
system.switch_cpus1.iq.issued_per_cycle::2     10865684     14.02%     70.87% # Number of insts issued each cycle
system.switch_cpus1.iq.issued_per_cycle::3      7959274     10.27%     81.14% # Number of insts issued each cycle
system.switch_cpus1.iq.issued_per_cycle::4      6819234      8.80%     89.94% # Number of insts issued each cycle
system.switch_cpus1.iq.issued_per_cycle::5      3549037      4.58%     94.52% # Number of insts issued each cycle
system.switch_cpus1.iq.issued_per_cycle::6      3031246      3.91%     98.43% # Number of insts issued each cycle
system.switch_cpus1.iq.issued_per_cycle::7       571240      0.74%     99.16% # Number of insts issued each cycle
system.switch_cpus1.iq.issued_per_cycle::8       647483      0.84%    100.00% # Number of insts issued each cycle
system.switch_cpus1.iq.issued_per_cycle::overflows            0      0.00%    100.00% # Number of insts issued each cycle
system.switch_cpus1.iq.issued_per_cycle::min_value            0                       # Number of insts issued each cycle
system.switch_cpus1.iq.issued_per_cycle::max_value            8                       # Number of insts issued each cycle
system.switch_cpus1.iq.issued_per_cycle::total     77507577                       # Number of insts issued each cycle
system.switch_cpus1.iq.fu_full::No_OpClass            0      0.00%      0.00% # attempts to use FU when none available
system.switch_cpus1.iq.fu_full::IntAlu         787599     71.22%     71.22% # attempts to use FU when none available
system.switch_cpus1.iq.fu_full::IntMult             5      0.00%     71.22% # attempts to use FU when none available
system.switch_cpus1.iq.fu_full::IntDiv              0      0.00%     71.22% # attempts to use FU when none available
system.switch_cpus1.iq.fu_full::FloatAdd            0      0.00%     71.22% # attempts to use FU when none available
system.switch_cpus1.iq.fu_full::FloatCmp            0      0.00%     71.22% # attempts to use FU when none available
system.switch_cpus1.iq.fu_full::FloatCvt            0      0.00%     71.22% # attempts to use FU when none available
system.switch_cpus1.iq.fu_full::FloatMult            0      0.00%     71.22% # attempts to use FU when none available
system.switch_cpus1.iq.fu_full::FloatDiv            0      0.00%     71.22% # attempts to use FU when none available
system.switch_cpus1.iq.fu_full::FloatSqrt            0      0.00%     71.22% # attempts to use FU when none available
system.switch_cpus1.iq.fu_full::SimdAdd             0      0.00%     71.22% # attempts to use FU when none available
system.switch_cpus1.iq.fu_full::SimdAddAcc            0      0.00%     71.22% # attempts to use FU when none available
system.switch_cpus1.iq.fu_full::SimdAlu             0      0.00%     71.22% # attempts to use FU when none available
system.switch_cpus1.iq.fu_full::SimdCmp             0      0.00%     71.22% # attempts to use FU when none available
system.switch_cpus1.iq.fu_full::SimdCvt             0      0.00%     71.22% # attempts to use FU when none available
system.switch_cpus1.iq.fu_full::SimdMisc            0      0.00%     71.22% # attempts to use FU when none available
system.switch_cpus1.iq.fu_full::SimdMult            0      0.00%     71.22% # attempts to use FU when none available
system.switch_cpus1.iq.fu_full::SimdMultAcc            0      0.00%     71.22% # attempts to use FU when none available
system.switch_cpus1.iq.fu_full::SimdShift            0      0.00%     71.22% # attempts to use FU when none available
system.switch_cpus1.iq.fu_full::SimdShiftAcc            0      0.00%     71.22% # attempts to use FU when none available
system.switch_cpus1.iq.fu_full::SimdSqrt            0      0.00%     71.22% # attempts to use FU when none available
system.switch_cpus1.iq.fu_full::SimdFloatAdd            0      0.00%     71.22% # attempts to use FU when none available
system.switch_cpus1.iq.fu_full::SimdFloatAlu            0      0.00%     71.22% # attempts to use FU when none available
system.switch_cpus1.iq.fu_full::SimdFloatCmp            0      0.00%     71.22% # attempts to use FU when none available
system.switch_cpus1.iq.fu_full::SimdFloatCvt            0      0.00%     71.22% # attempts to use FU when none available
system.switch_cpus1.iq.fu_full::SimdFloatDiv            0      0.00%     71.22% # attempts to use FU when none available
system.switch_cpus1.iq.fu_full::SimdFloatMisc            0      0.00%     71.22% # attempts to use FU when none available
system.switch_cpus1.iq.fu_full::SimdFloatMult            0      0.00%     71.22% # attempts to use FU when none available
system.switch_cpus1.iq.fu_full::SimdFloatMultAcc            0      0.00%     71.22% # attempts to use FU when none available
system.switch_cpus1.iq.fu_full::SimdFloatSqrt            0      0.00%     71.22% # attempts to use FU when none available
system.switch_cpus1.iq.fu_full::MemRead        160110     14.48%     85.69% # attempts to use FU when none available
system.switch_cpus1.iq.fu_full::MemWrite       158211     14.31%    100.00% # attempts to use FU when none available
system.switch_cpus1.iq.fu_full::IprAccess            0      0.00%    100.00% # attempts to use FU when none available
system.switch_cpus1.iq.fu_full::InstPrefetch            0      0.00%    100.00% # attempts to use FU when none available
system.switch_cpus1.iq.FU_type_0::No_OpClass            0      0.00%      0.00% # Type of FU issued
system.switch_cpus1.iq.FU_type_0::IntAlu    112004935     83.33%     83.33% # Type of FU issued
system.switch_cpus1.iq.FU_type_0::IntMult      1913049      1.42%     84.75% # Type of FU issued
system.switch_cpus1.iq.FU_type_0::IntDiv            0      0.00%     84.75% # Type of FU issued
system.switch_cpus1.iq.FU_type_0::FloatAdd            0      0.00%     84.75% # Type of FU issued
system.switch_cpus1.iq.FU_type_0::FloatCmp            0      0.00%     84.75% # Type of FU issued
system.switch_cpus1.iq.FU_type_0::FloatCvt            0      0.00%     84.75% # Type of FU issued
system.switch_cpus1.iq.FU_type_0::FloatMult            0      0.00%     84.75% # Type of FU issued
system.switch_cpus1.iq.FU_type_0::FloatDiv            0      0.00%     84.75% # Type of FU issued
system.switch_cpus1.iq.FU_type_0::FloatSqrt            0      0.00%     84.75% # Type of FU issued
system.switch_cpus1.iq.FU_type_0::SimdAdd            0      0.00%     84.75% # Type of FU issued
system.switch_cpus1.iq.FU_type_0::SimdAddAcc            0      0.00%     84.75% # Type of FU issued
system.switch_cpus1.iq.FU_type_0::SimdAlu            0      0.00%     84.75% # Type of FU issued
system.switch_cpus1.iq.FU_type_0::SimdCmp            0      0.00%     84.75% # Type of FU issued
system.switch_cpus1.iq.FU_type_0::SimdCvt            0      0.00%     84.75% # Type of FU issued
system.switch_cpus1.iq.FU_type_0::SimdMisc            0      0.00%     84.75% # Type of FU issued
system.switch_cpus1.iq.FU_type_0::SimdMult            0      0.00%     84.75% # Type of FU issued
system.switch_cpus1.iq.FU_type_0::SimdMultAcc            0      0.00%     84.75% # Type of FU issued
system.switch_cpus1.iq.FU_type_0::SimdShift            0      0.00%     84.75% # Type of FU issued
system.switch_cpus1.iq.FU_type_0::SimdShiftAcc            0      0.00%     84.75% # Type of FU issued
system.switch_cpus1.iq.FU_type_0::SimdSqrt            0      0.00%     84.75% # Type of FU issued
system.switch_cpus1.iq.FU_type_0::SimdFloatAdd            0      0.00%     84.75% # Type of FU issued
system.switch_cpus1.iq.FU_type_0::SimdFloatAlu            0      0.00%     84.75% # Type of FU issued
system.switch_cpus1.iq.FU_type_0::SimdFloatCmp            0      0.00%     84.75% # Type of FU issued
system.switch_cpus1.iq.FU_type_0::SimdFloatCvt            0      0.00%     84.75% # Type of FU issued
system.switch_cpus1.iq.FU_type_0::SimdFloatDiv            0      0.00%     84.75% # Type of FU issued
system.switch_cpus1.iq.FU_type_0::SimdFloatMisc        14868      0.01%     84.77% # Type of FU issued
system.switch_cpus1.iq.FU_type_0::SimdFloatMult            0      0.00%     84.77% # Type of FU issued
system.switch_cpus1.iq.FU_type_0::SimdFloatMultAcc            0      0.00%     84.77% # Type of FU issued
system.switch_cpus1.iq.FU_type_0::SimdFloatSqrt            0      0.00%     84.77% # Type of FU issued
system.switch_cpus1.iq.FU_type_0::MemRead     13340831      9.93%     94.69% # Type of FU issued
system.switch_cpus1.iq.FU_type_0::MemWrite      7135785      5.31%    100.00% # Type of FU issued
system.switch_cpus1.iq.FU_type_0::IprAccess            0      0.00%    100.00% # Type of FU issued
system.switch_cpus1.iq.FU_type_0::InstPrefetch            0      0.00%    100.00% # Type of FU issued
system.switch_cpus1.iq.FU_type_0::total     134409468                       # Type of FU issued
system.switch_cpus1.iq.rate                  1.651382                       # Inst issue rate
system.switch_cpus1.iq.fu_busy_cnt            1105925                       # FU busy when requested
system.switch_cpus1.iq.fu_busy_rate          0.008228                       # FU busy rate (busy events/executed inst)
system.switch_cpus1.iq.int_inst_queue_reads    347695479                       # Number of integer instruction queue reads
system.switch_cpus1.iq.int_inst_queue_writes    227753648                       # Number of integer instruction queue writes
system.switch_cpus1.iq.int_inst_queue_wakeup_accesses    130991561                       # Number of integer instruction queue wakeup accesses
system.switch_cpus1.iq.fp_inst_queue_reads            0                       # Number of floating instruction queue reads
system.switch_cpus1.iq.fp_inst_queue_writes            0                       # Number of floating instruction queue writes
system.switch_cpus1.iq.fp_inst_queue_wakeup_accesses            0                       # Number of floating instruction queue wakeup accesses
system.switch_cpus1.iq.int_alu_accesses     135515393                       # Number of integer alu accesses
system.switch_cpus1.iq.fp_alu_accesses              0                       # Number of floating point alu accesses
system.switch_cpus1.iew.lsq.thread0.forwLoads       505495                       # Number of loads that had data forwarded from stores
system.switch_cpus1.iew.lsq.thread0.invAddrLoads            0                       # Number of loads ignored due to an invalid address
system.switch_cpus1.iew.lsq.thread0.squashedLoads      6589152                       # Number of loads squashed
system.switch_cpus1.iew.lsq.thread0.ignoredResponses         2536                       # Number of memory responses ignored because the instruction is squashed
system.switch_cpus1.iew.lsq.thread0.memOrderViolation          586                       # Number of memory ordering violations
system.switch_cpus1.iew.lsq.thread0.squashedStores      2174429                       # Number of stores squashed
system.switch_cpus1.iew.lsq.thread0.invAddrSwpfs            0                       # Number of software prefetches ignored due to an invalid address
system.switch_cpus1.iew.lsq.thread0.blockedLoads            0                       # Number of blocked loads due to partial load-store forwarding
system.switch_cpus1.iew.lsq.thread0.rescheduledLoads            0                       # Number of loads that were rescheduled
system.switch_cpus1.iew.lsq.thread0.cacheBlocked            0                       # Number of times an access to memory failed due to the cache being blocked
system.switch_cpus1.iew.iewIdleCycles               0                       # Number of cycles IEW is idle
system.switch_cpus1.iew.iewSquashCycles       8270306                       # Number of cycles IEW is squashing
system.switch_cpus1.iew.iewBlockCycles         564017                       # Number of cycles IEW is blocking
system.switch_cpus1.iew.iewUnblockCycles        73640                       # Number of cycles IEW is unblocking
system.switch_cpus1.iew.iewDispatchedInsts    169252833                       # Number of instructions dispatched to IQ
system.switch_cpus1.iew.iewDispSquashedInsts       368584                       # Number of squashed instructions skipped by dispatch
system.switch_cpus1.iew.iewDispLoadInsts     16691413                       # Number of dispatched load instructions
system.switch_cpus1.iew.iewDispStoreInsts      8492076                       # Number of dispatched store instructions
system.switch_cpus1.iew.iewDispNonSpecInsts        20822                       # Number of dispatched non-speculative instructions
system.switch_cpus1.iew.iewIQFullEvents         65973                       # Number of times the IQ has become full, causing a stall
system.switch_cpus1.iew.iewLSQFullEvents            0                       # Number of times the LSQ has become full, causing a stall
system.switch_cpus1.iew.memOrderViolationEvents          586                       # Number of memory order violations
system.switch_cpus1.iew.predictedTakenIncorrect      1141987                       # Number of branches that were predicted taken incorrectly
system.switch_cpus1.iew.predictedNotTakenIncorrect      1073926                       # Number of branches that were predicted not taken incorrectly
system.switch_cpus1.iew.branchMispredicts      2215913                       # Number of branch mispredicts detected at execute
system.switch_cpus1.iew.iewExecutedInsts    132275335                       # Number of executed instructions
system.switch_cpus1.iew.iewExecLoadInsts     12515002                       # Number of load instructions executed
system.switch_cpus1.iew.iewExecSquashedInsts      2134131                       # Number of squashed instructions skipped in execute
system.switch_cpus1.iew.exec_swp                    0                       # number of swp insts executed
system.switch_cpus1.iew.exec_nop                    1                       # number of nop insts executed
system.switch_cpus1.iew.exec_refs            19467351                       # number of memory reference insts executed
system.switch_cpus1.iew.exec_branches        18660701                       # Number of branches executed
system.switch_cpus1.iew.exec_stores           6952349                       # Number of stores executed
system.switch_cpus1.iew.exec_rate            1.625162                       # Inst execution rate
system.switch_cpus1.iew.wb_sent             131078709                       # cumulative count of insts sent to commit
system.switch_cpus1.iew.wb_count            130991561                       # cumulative count of insts written-back
system.switch_cpus1.iew.wb_producers         85374845                       # num instructions producing a value
system.switch_cpus1.iew.wb_consumers        241026675                       # num instructions consuming a value
system.switch_cpus1.iew.wb_penalized                0                       # number of instrctions required to write to 'other' IQ
system.switch_cpus1.iew.wb_rate              1.609389                       # insts written-back per cycle
system.switch_cpus1.iew.wb_fanout            0.354213                       # average fanout of values written-back
system.switch_cpus1.iew.wb_penalized_rate            0                       # fraction of instructions written-back that wrote to 'other' IQ
system.switch_cpus1.commit.commitCommittedInsts     89932778                       # The number of committed instructions
system.switch_cpus1.commit.commitCommittedOps    110444447                       # The number of committed instructions
system.switch_cpus1.commit.commitSquashedInsts     58809240                       # The number of squashed insts skipped by commit
system.switch_cpus1.commit.commitNonSpecStalls        29736                       # The number of times commit has been forced to stall to communicate backwards
system.switch_cpus1.commit.branchMispredicts      1914561                       # The number of times a branch was mispredicted
[...]
system.cpu3.icache.overall_accesses::switch_cpus3.inst     15695869                       # number of overall (read+write) accesses
system.cpu3.icache.overall_accesses::total     15695869                       # number of overall (read+write) accesses
system.cpu3.icache.ReadReq_miss_rate::switch_cpus3.inst     0.000001                       # miss rate for ReadReq accesses
system.cpu3.icache.ReadReq_miss_rate::total     0.000001                       # miss rate for ReadReq accesses
system.cpu3.icache.demand_miss_rate::switch_cpus3.inst     0.000001                       # miss rate for demand accesses
system.cpu3.icache.demand_miss_rate::total     0.000001                       # miss rate for demand accesses
system.cpu3.icache.overall_miss_rate::switch_cpus3.inst     0.000001                       # miss rate for overall accesses
system.cpu3.icache.overall_miss_rate::total     0.000001                       # miss rate for overall accesses
system.cpu3.icache.ReadReq_avg_miss_latency::switch_cpus3.inst 155391.650000                       # average ReadReq miss latency
system.cpu3.icache.ReadReq_avg_miss_latency::total 155391.650000                       # average ReadReq miss latency
system.cpu3.icache.demand_avg_miss_latency::switch_cpus3.inst 155391.650000                       # average overall miss latency
system.cpu3.icache.demand_avg_miss_latency::total 155391.650000                       # average overall miss latency
system.cpu3.icache.overall_avg_miss_latency::switch_cpus3.inst 155391.650000                       # average overall miss latency
system.cpu3.icache.overall_avg_miss_latency::total 155391.650000                       # average overall miss latency
system.cpu3.icache.blocked_cycles::no_mshrs            0                       # number of cycles access was blocked
system.cpu3.icache.blocked_cycles::no_targets            0                       # number of cycles access was blocked
system.cpu3.icache.blocked::no_mshrs                0                       # number of cycles access was blocked
system.cpu3.icache.blocked::no_targets              0                       # number of cycles access was blocked
system.cpu3.icache.avg_blocked_cycles::no_mshrs          nan                       # average number of cycles each access was blocked
system.cpu3.icache.avg_blocked_cycles::no_targets          nan                       # average number of cycles each access was blocked
system.cpu3.icache.fast_writes                      0                       # number of fast writes performed
system.cpu3.icache.cache_copies                     0                       # number of cache copies performed
system.cpu3.icache.ReadReq_mshr_hits::switch_cpus3.inst            7                       # number of ReadReq MSHR hits
system.cpu3.icache.ReadReq_mshr_hits::total            7                       # number of ReadReq MSHR hits
system.cpu3.icache.demand_mshr_hits::switch_cpus3.inst            7                       # number of demand (read+write) MSHR hits
system.cpu3.icache.demand_mshr_hits::total            7                       # number of demand (read+write) MSHR hits
system.cpu3.icache.overall_mshr_hits::switch_cpus3.inst            7                       # number of overall MSHR hits
system.cpu3.icache.overall_mshr_hits::total            7                       # number of overall MSHR hits
system.cpu3.icache.ReadReq_mshr_misses::switch_cpus3.inst           13                       # number of ReadReq MSHR misses
system.cpu3.icache.ReadReq_mshr_misses::total           13                       # number of ReadReq MSHR misses
system.cpu3.icache.demand_mshr_misses::switch_cpus3.inst           13                       # number of demand (read+write) MSHR misses
system.cpu3.icache.demand_mshr_misses::total           13                       # number of demand (read+write) MSHR misses
system.cpu3.icache.overall_mshr_misses::switch_cpus3.inst           13                       # number of overall MSHR misses
system.cpu3.icache.overall_mshr_misses::total           13                       # number of overall MSHR misses
system.cpu3.icache.ReadReq_mshr_miss_latency::switch_cpus3.inst      1966638                       # number of ReadReq MSHR miss cycles
system.cpu3.icache.ReadReq_mshr_miss_latency::total      1966638                       # number of ReadReq MSHR miss cycles
system.cpu3.icache.demand_mshr_miss_latency::switch_cpus3.inst      1966638                       # number of demand (read+write) MSHR miss cycles
system.cpu3.icache.demand_mshr_miss_latency::total      1966638                       # number of demand (read+write) MSHR miss cycles
system.cpu3.icache.overall_mshr_miss_latency::switch_cpus3.inst      1966638                       # number of overall MSHR miss cycles
system.cpu3.icache.overall_mshr_miss_latency::total      1966638                       # number of overall MSHR miss cycles
system.cpu3.icache.ReadReq_mshr_miss_rate::switch_cpus3.inst     0.000001                       # mshr miss rate for ReadReq accesses
system.cpu3.icache.ReadReq_mshr_miss_rate::total     0.000001                       # mshr miss rate for ReadReq accesses
system.cpu3.icache.demand_mshr_miss_rate::switch_cpus3.inst     0.000001                       # mshr miss rate for demand accesses
system.cpu3.icache.demand_mshr_miss_rate::total     0.000001                       # mshr miss rate for demand accesses
system.cpu3.icache.overall_mshr_miss_rate::switch_cpus3.inst     0.000001                       # mshr miss rate for overall accesses
system.cpu3.icache.overall_mshr_miss_rate::total     0.000001                       # mshr miss rate for overall accesses
system.cpu3.icache.ReadReq_avg_mshr_miss_latency::switch_cpus3.inst 151279.846154                       # average ReadReq mshr miss latency
system.cpu3.icache.ReadReq_avg_mshr_miss_latency::total 151279.846154                       # average ReadReq mshr miss latency
system.cpu3.icache.demand_avg_mshr_miss_latency::switch_cpus3.inst 151279.846154                       # average overall mshr miss latency
system.cpu3.icache.demand_avg_mshr_miss_latency::total 151279.846154                       # average overall mshr miss latency
system.cpu3.icache.overall_avg_mshr_miss_latency::switch_cpus3.inst 151279.846154                       # average overall mshr miss latency
system.cpu3.icache.overall_avg_mshr_miss_latency::total 151279.846154                       # average overall mshr miss latency
system.cpu3.icache.no_allocate_misses               0                       # Number of misses that were no-allocate
system.cpu3.dcache.replacements                 48624                       # number of replacements
system.cpu3.dcache.tagsinuse                      256                       # Cycle average of tags in use
system.cpu3.dcache.total_refs               185584195                       # Total number of references to valid blocks.
system.cpu3.dcache.sampled_refs                 48880                       # Sample count of references to valid blocks.
system.cpu3.dcache.avg_refs               3796.730667                       # Average number of references to valid blocks.
system.cpu3.dcache.warmup_cycle                     0                       # Cycle when the warmup percentage was hit.
system.cpu3.dcache.occ_blocks::switch_cpus3.data   233.571992                       # Average occupied blocks per requestor
system.cpu3.dcache.occ_blocks::cpu3.data    22.428008                       # Average occupied blocks per requestor
system.cpu3.dcache.occ_percent::switch_cpus3.data     0.912391                       # Average percentage of cache occupancy
system.cpu3.dcache.occ_percent::cpu3.data     0.087609                       # Average percentage of cache occupancy
system.cpu3.dcache.occ_percent::total               1                       # Average percentage of cache occupancy
system.cpu3.dcache.ReadReq_hits::switch_cpus3.data      9755591                       # number of ReadReq hits
system.cpu3.dcache.ReadReq_hits::total        9755591                       # number of ReadReq hits
system.cpu3.dcache.WriteReq_hits::switch_cpus3.data      6715308                       # number of WriteReq hits
system.cpu3.dcache.WriteReq_hits::total       6715308                       # number of WriteReq hits
system.cpu3.dcache.LoadLockedReq_hits::switch_cpus3.data        16535                       # number of LoadLockedReq hits
system.cpu3.dcache.LoadLockedReq_hits::total        16535                       # number of LoadLockedReq hits
system.cpu3.dcache.StoreCondReq_hits::switch_cpus3.data        15582                       # number of StoreCondReq hits
system.cpu3.dcache.StoreCondReq_hits::total        15582                       # number of StoreCondReq hits
system.cpu3.dcache.demand_hits::switch_cpus3.data     16470899                       # number of demand (read+write) hits
system.cpu3.dcache.demand_hits::total        16470899                       # number of demand (read+write) hits
system.cpu3.dcache.overall_hits::switch_cpus3.data     16470899                       # number of overall hits
system.cpu3.dcache.overall_hits::total       16470899                       # number of overall hits
system.cpu3.dcache.ReadReq_misses::switch_cpus3.data       122826                       # number of ReadReq misses
system.cpu3.dcache.ReadReq_misses::total       122826                       # number of ReadReq misses
system.cpu3.dcache.WriteReq_misses::switch_cpus3.data         3447                       # number of WriteReq misses
system.cpu3.dcache.WriteReq_misses::total         3447                       # number of WriteReq misses
system.cpu3.dcache.demand_misses::switch_cpus3.data       126273                       # number of demand (read+write) misses
system.cpu3.dcache.demand_misses::total        126273                       # number of demand (read+write) misses
system.cpu3.dcache.overall_misses::switch_cpus3.data       126273                       # number of overall misses
system.cpu3.dcache.overall_misses::total       126273                       # number of overall misses
system.cpu3.dcache.ReadReq_miss_latency::switch_cpus3.data   6997425912                       # number of ReadReq miss cycles
system.cpu3.dcache.ReadReq_miss_latency::total   6997425912                       # number of ReadReq miss cycles
system.cpu3.dcache.WriteReq_miss_latency::switch_cpus3.data    437573760                       # number of WriteReq miss cycles
system.cpu3.dcache.WriteReq_miss_latency::total    437573760                       # number of WriteReq miss cycles
system.cpu3.dcache.demand_miss_latency::switch_cpus3.data   7434999672                       # number of demand (read+write) miss cycles
system.cpu3.dcache.demand_miss_latency::total   7434999672                       # number of demand (read+write) miss cycles
system.cpu3.dcache.overall_miss_latency::switch_cpus3.data   7434999672                       # number of overall miss cycles
system.cpu3.dcache.overall_miss_latency::total   7434999672                       # number of overall miss cycles
system.cpu3.dcache.ReadReq_accesses::switch_cpus3.data      9878417                       # number of ReadReq accesses(hits+misses)
system.cpu3.dcache.ReadReq_accesses::total      9878417                       # number of ReadReq accesses(hits+misses)
system.cpu3.dcache.WriteReq_accesses::switch_cpus3.data      6718755                       # number of WriteReq accesses(hits+misses)
system.cpu3.dcache.WriteReq_accesses::total      6718755                       # number of WriteReq accesses(hits+misses)
system.cpu3.dcache.LoadLockedReq_accesses::switch_cpus3.data        16535                       # number of LoadLockedReq accesses(hits+misses)
system.cpu3.dcache.LoadLockedReq_accesses::total        16535                       # number of LoadLockedReq accesses(hits+misses)
system.cpu3.dcache.StoreCondReq_accesses::switch_cpus3.data        15582                       # number of StoreCondReq accesses(hits+misses)
system.cpu3.dcache.StoreCondReq_accesses::total        15582                       # number of StoreCondReq accesses(hits+misses)
system.cpu3.dcache.demand_accesses::switch_cpus3.data     16597172                       # number of demand (read+write) accesses
system.cpu3.dcache.demand_accesses::total     16597172                       # number of demand (read+write) accesses
system.cpu3.dcache.overall_accesses::switch_cpus3.data     16597172                       # number of overall (read+write) accesses
system.cpu3.dcache.overall_accesses::total     16597172                       # number of overall (read+write) accesses
system.cpu3.dcache.ReadReq_miss_rate::switch_cpus3.data     0.012434                       # miss rate for ReadReq accesses
system.cpu3.dcache.ReadReq_miss_rate::total     0.012434                       # miss rate for ReadReq accesses
system.cpu3.dcache.WriteReq_miss_rate::switch_cpus3.data     0.000513                       # miss rate for WriteReq accesses
system.cpu3.dcache.WriteReq_miss_rate::total     0.000513                       # miss rate for WriteReq accesses
system.cpu3.dcache.demand_miss_rate::switch_cpus3.data     0.007608                       # miss rate for demand accesses
system.cpu3.dcache.demand_miss_rate::total     0.007608                       # miss rate for demand accesses
system.cpu3.dcache.overall_miss_rate::switch_cpus3.data     0.007608                       # miss rate for overall accesses
system.cpu3.dcache.overall_miss_rate::total     0.007608                       # miss rate for overall accesses
system.cpu3.dcache.ReadReq_avg_miss_latency::switch_cpus3.data 56970.233599                       # average ReadReq miss latency
system.cpu3.dcache.ReadReq_avg_miss_latency::total 56970.233599                       # average ReadReq miss latency
system.cpu3.dcache.WriteReq_avg_miss_latency::switch_cpus3.data 126943.359443                       # average WriteReq miss latency
system.cpu3.dcache.WriteReq_avg_miss_latency::total 126943.359443                       # average WriteReq miss latency
system.cpu3.dcache.demand_avg_miss_latency::switch_cpus3.data 58880.359792                       # average overall miss latency
system.cpu3.dcache.demand_avg_miss_latency::total 58880.359792                       # average overall miss latency
system.cpu3.dcache.overall_avg_miss_latency::switch_cpus3.data 58880.359792                       # average overall miss latency
system.cpu3.dcache.overall_avg_miss_latency::total 58880.359792                       # average overall miss latency
system.cpu3.dcache.blocked_cycles::no_mshrs            0                       # number of cycles access was blocked
system.cpu3.dcache.blocked_cycles::no_targets      2029444                       # number of cycles access was blocked
system.cpu3.dcache.blocked::no_mshrs                0                       # number of cycles access was blocked
system.cpu3.dcache.blocked::no_targets             22                       # number of cycles access was blocked
system.cpu3.dcache.avg_blocked_cycles::no_mshrs          nan                       # average number of cycles each access was blocked
system.cpu3.dcache.avg_blocked_cycles::no_targets 92247.454545                       # average number of cycles each access was blocked
system.cpu3.dcache.fast_writes                      0                       # number of fast writes performed
system.cpu3.dcache.cache_copies                     0                       # number of cache copies performed
system.cpu3.dcache.writebacks::writebacks        23637                       # number of writebacks
system.cpu3.dcache.writebacks::total            23637                       # number of writebacks
system.cpu3.dcache.ReadReq_mshr_hits::switch_cpus3.data        74202                       # number of ReadReq MSHR hits
system.cpu3.dcache.ReadReq_mshr_hits::total        74202                       # number of ReadReq MSHR hits
system.cpu3.dcache.WriteReq_mshr_hits::switch_cpus3.data         3447                       # number of WriteReq MSHR hits
system.cpu3.dcache.WriteReq_mshr_hits::total         3447                       # number of WriteReq MSHR hits
system.cpu3.dcache.demand_mshr_hits::switch_cpus3.data        77649                       # number of demand (read+write) MSHR hits
system.cpu3.dcache.demand_mshr_hits::total        77649                       # number of demand (read+write) MSHR hits
system.cpu3.dcache.overall_mshr_hits::switch_cpus3.data        77649                       # number of overall MSHR hits
system.cpu3.dcache.overall_mshr_hits::total        77649                       # number of overall MSHR hits
system.cpu3.dcache.ReadReq_mshr_misses::switch_cpus3.data        48624                       # number of ReadReq MSHR misses
system.cpu3.dcache.ReadReq_mshr_misses::total        48624                       # number of ReadReq MSHR misses
system.cpu3.dcache.demand_mshr_misses::switch_cpus3.data        48624                       # number of demand (read+write) MSHR misses
system.cpu3.dcache.demand_mshr_misses::total        48624                       # number of demand (read+write) MSHR misses
system.cpu3.dcache.overall_mshr_misses::switch_cpus3.data        48624                       # number of overall MSHR misses
system.cpu3.dcache.overall_mshr_misses::total        48624                       # number of overall MSHR misses
system.cpu3.dcache.ReadReq_mshr_miss_latency::switch_cpus3.data   1664474741                       # number of ReadReq MSHR miss cycles
system.cpu3.dcache.ReadReq_mshr_miss_latency::total   1664474741                       # number of ReadReq MSHR miss cycles
system.cpu3.dcache.demand_mshr_miss_latency::switch_cpus3.data   1664474741                       # number of demand (read+write) MSHR miss cycles
system.cpu3.dcache.demand_mshr_miss_latency::total   1664474741                       # number of demand (read+write) MSHR miss cycles
system.cpu3.dcache.overall_mshr_miss_latency::switch_cpus3.data   1664474741                       # number of overall MSHR miss cycles
system.cpu3.dcache.overall_mshr_miss_latency::total   1664474741                       # number of overall MSHR miss cycles
system.cpu3.dcache.ReadReq_mshr_miss_rate::switch_cpus3.data     0.004922                       # mshr miss rate for ReadReq accesses
system.cpu3.dcache.ReadReq_mshr_miss_rate::total     0.004922                       # mshr miss rate for ReadReq accesses
system.cpu3.dcache.demand_mshr_miss_rate::switch_cpus3.data     0.002930                       # mshr miss rate for demand accesses
system.cpu3.dcache.demand_mshr_miss_rate::total     0.002930                       # mshr miss rate for demand accesses
system.cpu3.dcache.overall_mshr_miss_rate::switch_cpus3.data     0.002930                       # mshr miss rate for overall accesses
system.cpu3.dcache.overall_mshr_miss_rate::total     0.002930                       # mshr miss rate for overall accesses
system.cpu3.dcache.ReadReq_avg_mshr_miss_latency::switch_cpus3.data 34231.546993                       # average ReadReq mshr miss latency
system.cpu3.dcache.ReadReq_avg_mshr_miss_latency::total 34231.546993                       # average ReadReq mshr miss latency
system.cpu3.dcache.demand_avg_mshr_miss_latency::switch_cpus3.data 34231.546993                       # average overall mshr miss latency
system.cpu3.dcache.demand_avg_mshr_miss_latency::total 34231.546993                       # average overall mshr miss latency
system.cpu3.dcache.overall_avg_mshr_miss_latency::switch_cpus3.data 34231.546993                       # average overall mshr miss latency
system.cpu3.dcache.overall_avg_mshr_miss_latency::total 34231.546993                       # average overall mshr miss latency
system.cpu3.dcache.no_allocate_misses               0                       # Number of misses that were no-allocate

---------- End Simulation Statistics   ----------
