
---------- Begin Simulation Statistics ----------
sim_seconds                                  0.105188                       # Number of seconds simulated
sim_ticks                                105188131155                       # Number of ticks simulated
final_tick                               633132247167                       # Number of ticks from beginning of simulation (restored from checkpoints and never reset)
sim_freq                                 1000000000000                       # Frequency of simulated ticks
host_inst_rate                                 165809                       # Simulator instruction rate (inst/s)
host_op_rate                                   209569                       # Simulator op (including micro ops) rate (op/s)
host_tick_rate                                5279860                       # Simulator tick rate (ticks/s)
host_mem_usage                               16906588                       # Number of bytes of host memory used
host_seconds                                 19922.52                       # Real time elapsed on the host
sim_insts                                  3303335701                       # Number of instructions simulated
sim_ops                                    4175139579                       # Number of ops (including micro ops) simulated
system.physmem.bytes_read::switch_cpus0.inst         1664                       # Number of bytes read from this memory
system.physmem.bytes_read::switch_cpus0.data      1142912                       # Number of bytes read from this memory
system.physmem.bytes_read::switch_cpus1.inst         1280                       # Number of bytes read from this memory
system.physmem.bytes_read::switch_cpus1.data      2220160                       # Number of bytes read from this memory
system.physmem.bytes_read::switch_cpus2.inst         1792                       # Number of bytes read from this memory
system.physmem.bytes_read::switch_cpus2.data       536832                       # Number of bytes read from this memory
system.physmem.bytes_read::total              3904640                       # Number of bytes read from this memory
system.physmem.bytes_inst_read::switch_cpus0.inst         1664                       # Number of instructions bytes read from this memory
system.physmem.bytes_inst_read::switch_cpus1.inst         1280                       # Number of instructions bytes read from this memory
system.physmem.bytes_inst_read::switch_cpus2.inst         1792                       # Number of instructions bytes read from this memory
system.physmem.bytes_inst_read::total            4736                       # Number of instructions bytes read from this memory
system.physmem.bytes_written::writebacks      1704576                       # Number of bytes written to this memory
system.physmem.bytes_written::total           1704576                       # Number of bytes written to this memory
system.physmem.num_reads::switch_cpus0.inst           13                       # Number of read requests responded to by this memory
system.physmem.num_reads::switch_cpus0.data         8929                       # Number of read requests responded to by this memory
system.physmem.num_reads::switch_cpus1.inst           10                       # Number of read requests responded to by this memory
system.physmem.num_reads::switch_cpus1.data        17345                       # Number of read requests responded to by this memory
system.physmem.num_reads::switch_cpus2.inst           14                       # Number of read requests responded to by this memory
system.physmem.num_reads::switch_cpus2.data         4194                       # Number of read requests responded to by this memory
system.physmem.num_reads::total                 30505                       # Number of read requests responded to by this memory
system.physmem.num_writes::writebacks           13317                       # Number of write requests responded to by this memory
system.physmem.num_writes::functional               0                       # Number of write requests responded to by this memory
system.physmem.num_writes::interrupt                0                       # Number of write requests responded to by this memory
system.physmem.num_writes::switch_cpus0.dtb.walker            0                       # Number of write requests responded to by this memory
system.physmem.num_writes::switch_cpus0.itb.walker            0                       # Number of write requests responded to by this memory
system.physmem.num_writes::switch_cpus0.inst            0                       # Number of write requests responded to by this memory
system.physmem.num_writes::switch_cpus0.data            0                       # Number of write requests responded to by this memory
system.physmem.num_writes::switch_cpus1.dtb.walker            0                       # Number of write requests responded to by this memory
system.physmem.num_writes::switch_cpus1.itb.walker            0                       # Number of write requests responded to by this memory
system.physmem.num_writes::switch_cpus1.inst            0                       # Number of write requests responded to by this memory
system.physmem.num_writes::switch_cpus1.data            0                       # Number of write requests responded to by this memory
system.physmem.num_writes::switch_cpus2.dtb.walker            0                       # Number of write requests responded to by this memory
system.physmem.num_writes::switch_cpus2.itb.walker            0                       # Number of write requests responded to by this memory
system.physmem.num_writes::switch_cpus2.inst            0                       # Number of write requests responded to by this memory
system.physmem.num_writes::switch_cpus2.data            0                       # Number of write requests responded to by this memory
system.physmem.num_writes::cpu0.dtb.walker            0                       # Number of write requests responded to by this memory
system.physmem.num_writes::cpu0.itb.walker            0                       # Number of write requests responded to by this memory
system.physmem.num_writes::cpu0.inst                0                       # Number of write requests responded to by this memory
system.physmem.num_writes::cpu0.data                0                       # Number of write requests responded to by this memory
system.physmem.num_writes::cpu1.dtb.walker            0                       # Number of write requests responded to by this memory
system.physmem.num_writes::cpu1.itb.walker            0                       # Number of write requests responded to by this memory
system.physmem.num_writes::cpu1.inst                0                       # Number of write requests responded to by this memory
system.physmem.num_writes::cpu1.data                0                       # Number of write requests responded to by this memory
system.physmem.num_writes::cpu2.dtb.walker            0                       # Number of write requests responded to by this memory
system.physmem.num_writes::cpu2.itb.walker            0                       # Number of write requests responded to by this memory
system.physmem.num_writes::cpu2.inst                0                       # Number of write requests responded to by this memory
system.physmem.num_writes::cpu2.data                0                       # Number of write requests responded to by this memory
system.physmem.num_writes::total                13317                       # Number of write requests responded to by this memory
system.physmem.bw_read::switch_cpus0.inst        15819                       # Total read bandwidth from this memory (bytes/s)
system.physmem.bw_read::switch_cpus0.data     10865408                       # Total read bandwidth from this memory (bytes/s)
system.physmem.bw_read::switch_cpus1.inst        12169                       # Total read bandwidth from this memory (bytes/s)
system.physmem.bw_read::switch_cpus1.data     21106564                       # Total read bandwidth from this memory (bytes/s)
system.physmem.bw_read::switch_cpus2.inst        17036                       # Total read bandwidth from this memory (bytes/s)
system.physmem.bw_read::switch_cpus2.data      5103542                       # Total read bandwidth from this memory (bytes/s)
system.physmem.bw_read::total                37120538                       # Total read bandwidth from this memory (bytes/s)
system.physmem.bw_inst_read::switch_cpus0.inst        15819                       # Instruction read bandwidth from this memory (bytes/s)
system.physmem.bw_inst_read::switch_cpus1.inst        12169                       # Instruction read bandwidth from this memory (bytes/s)
system.physmem.bw_inst_read::switch_cpus2.inst        17036                       # Instruction read bandwidth from this memory (bytes/s)
system.physmem.bw_inst_read::total              45024                       # Instruction read bandwidth from this memory (bytes/s)
system.physmem.bw_write::writebacks          16205022                       # Write bandwidth from this memory (bytes/s)
system.physmem.bw_write::total               16205022                       # Write bandwidth from this memory (bytes/s)
system.physmem.bw_total::writebacks          16205022                       # Total bandwidth to/from this memory (bytes/s)
system.physmem.bw_total::switch_cpus0.inst        15819                       # Total bandwidth to/from this memory (bytes/s)
system.physmem.bw_total::switch_cpus0.data     10865408                       # Total bandwidth to/from this memory (bytes/s)
system.physmem.bw_total::switch_cpus1.inst        12169                       # Total bandwidth to/from this memory (bytes/s)
system.physmem.bw_total::switch_cpus1.data     21106564                       # Total bandwidth to/from this memory (bytes/s)
system.physmem.bw_total::switch_cpus2.inst        17036                       # Total bandwidth to/from this memory (bytes/s)
system.physmem.bw_total::switch_cpus2.data      5103542                       # Total bandwidth to/from this memory (bytes/s)
system.physmem.bw_total::total               53325560                       # Total bandwidth to/from this memory (bytes/s)
system.switch_cpus0.dtb.inst_hits                   0                       # ITB inst hits
system.switch_cpus0.dtb.inst_misses                 0                       # ITB inst misses
system.switch_cpus0.dtb.read_hits                   0                       # DTB read hits
system.switch_cpus0.dtb.read_misses                 0                       # DTB read misses
system.switch_cpus0.dtb.write_hits                  0                       # DTB write hits
system.switch_cpus0.dtb.write_misses                0                       # DTB write misses
system.switch_cpus0.dtb.flush_tlb                   0                       # Number of times complete TLB was flushed
system.switch_cpus0.dtb.flush_tlb_mva               0                       # Number of times TLB was flushed by MVA
system.switch_cpus0.dtb.flush_tlb_mva_asid            0                       # Number of times TLB was flushed by MVA & ASID
system.switch_cpus0.dtb.flush_tlb_asid              0                       # Number of times TLB was flushed by ASID
system.switch_cpus0.dtb.flush_entries               0                       # Number of entries that have been flushed from TLB
system.switch_cpus0.dtb.align_faults                0                       # Number of TLB faults due to alignment restrictions
system.switch_cpus0.dtb.prefetch_faults             0                       # Number of TLB faults due to prefetch
system.switch_cpus0.dtb.domain_faults               0                       # Number of TLB faults due to domain restrictions
system.switch_cpus0.dtb.perms_faults                0                       # Number of TLB faults due to permissions restrictions
system.switch_cpus0.dtb.read_accesses               0                       # DTB read accesses
system.switch_cpus0.dtb.write_accesses              0                       # DTB write accesses
system.switch_cpus0.dtb.inst_accesses               0                       # ITB inst accesses
system.switch_cpus0.dtb.hits                        0                       # DTB hits
system.switch_cpus0.dtb.misses                      0                       # DTB misses
system.switch_cpus0.dtb.accesses                    0                       # DTB accesses
system.switch_cpus0.itb.inst_hits                   0                       # ITB inst hits
system.switch_cpus0.itb.inst_misses                 0                       # ITB inst misses
system.switch_cpus0.itb.read_hits                   0                       # DTB read hits
system.switch_cpus0.itb.read_misses                 0                       # DTB read misses
system.switch_cpus0.itb.write_hits                  0                       # DTB write hits
system.switch_cpus0.itb.write_misses                0                       # DTB write misses
system.switch_cpus0.itb.flush_tlb                   0                       # Number of times complete TLB was flushed
system.switch_cpus0.itb.flush_tlb_mva               0                       # Number of times TLB was flushed by MVA
system.switch_cpus0.itb.flush_tlb_mva_asid            0                       # Number of times TLB was flushed by MVA & ASID
system.switch_cpus0.itb.flush_tlb_asid              0                       # Number of times TLB was flushed by ASID
system.switch_cpus0.itb.flush_entries               0                       # Number of entries that have been flushed from TLB
system.switch_cpus0.itb.align_faults                0                       # Number of TLB faults due to alignment restrictions
system.switch_cpus0.itb.prefetch_faults             0                       # Number of TLB faults due to prefetch
system.switch_cpus0.itb.domain_faults               0                       # Number of TLB faults due to domain restrictions
system.switch_cpus0.itb.perms_faults                0                       # Number of TLB faults due to permissions restrictions
system.switch_cpus0.itb.read_accesses               0                       # DTB read accesses
system.switch_cpus0.itb.write_accesses              0                       # DTB write accesses
system.switch_cpus0.itb.inst_accesses               0                       # ITB inst accesses
system.switch_cpus0.itb.hits                        0                       # DTB hits
system.switch_cpus0.itb.misses                      0                       # DTB misses
system.switch_cpus0.itb.accesses                    0                       # DTB accesses
system.cpu0.workload.num_syscalls                   0                       # Number of system calls
system.switch_cpus0.numCycles               252249716                       # number of cpu cycles simulated
system.switch_cpus0.numWorkItemsStarted             0                       # number of work items this cpu started
system.switch_cpus0.numWorkItemsCompleted            0                       # number of work items this cpu completed
system.switch_cpus0.BPredUnit.lookups        20663414                       # Number of BP lookups
system.switch_cpus0.BPredUnit.condPredicted     16894561                       # Number of conditional branches predicted
system.switch_cpus0.BPredUnit.condIncorrect      2011315                       # Number of conditional branches incorrect
system.switch_cpus0.BPredUnit.BTBLookups      8481474                       # Number of BTB lookups
system.switch_cpus0.BPredUnit.BTBHits         8113431                       # Number of BTB hits
system.switch_cpus0.BPredUnit.BTBCorrect            0                       # Number of correct BTB predictions (this stat may not work properly.
system.switch_cpus0.BPredUnit.usedRAS         2118711                       # Number of times the RAS was used to get a target.
system.switch_cpus0.BPredUnit.RASInCorrect        91530                       # Number of incorrect RAS predictions.
system.switch_cpus0.fetch.icacheStallCycles    199010270                       # Number of cycles fetch is stalled on an Icache miss
system.switch_cpus0.fetch.Insts             116095810                       # Number of instructions fetch has processed
system.switch_cpus0.fetch.Branches           20663414                       # Number of branches that fetch encountered
system.switch_cpus0.fetch.predictedBranches     10232142                       # Number of branches that fetch has predicted taken
system.switch_cpus0.fetch.Cycles             24185979                       # Number of cycles fetch has run and was not squashing or blocked
system.switch_cpus0.fetch.SquashCycles        5582004                       # Number of cycles fetch has spent squashing
system.switch_cpus0.fetch.BlockedCycles       4888791                       # Number of cycles fetch has spent blocked
system.switch_cpus0.fetch.PendingTrapStallCycles            6                       # Number of stall cycles due to pending traps
system.switch_cpus0.fetch.CacheLines         12190252                       # Number of cache lines fetched
system.switch_cpus0.fetch.IcacheSquashes      2012959                       # Number of outstanding Icache misses that were squashed
system.switch_cpus0.fetch.rateDist::samples    231622136                       # Number of instructions fetched each cycle (Total)
system.switch_cpus0.fetch.rateDist::mean     0.614596                       # Number of instructions fetched each cycle (Total)
system.switch_cpus0.fetch.rateDist::stdev     1.958453                       # Number of instructions fetched each cycle (Total)
system.switch_cpus0.fetch.rateDist::underflows            0      0.00%      0.00% # Number of instructions fetched each cycle (Total)
system.switch_cpus0.fetch.rateDist::0       207436157     89.56%     89.56% # Number of instructions fetched each cycle (Total)
system.switch_cpus0.fetch.rateDist::1         1161631      0.50%     90.06% # Number of instructions fetched each cycle (Total)
system.switch_cpus0.fetch.rateDist::2         1772137      0.77%     90.82% # Number of instructions fetched each cycle (Total)
system.switch_cpus0.fetch.rateDist::3         2420136      1.04%     91.87% # Number of instructions fetched each cycle (Total)
system.switch_cpus0.fetch.rateDist::4         2484024      1.07%     92.94% # Number of instructions fetched each cycle (Total)
system.switch_cpus0.fetch.rateDist::5         2076552      0.90%     93.84% # Number of instructions fetched each cycle (Total)
system.switch_cpus0.fetch.rateDist::6         1183977      0.51%     94.35% # Number of instructions fetched each cycle (Total)
system.switch_cpus0.fetch.rateDist::7         1735231      0.75%     95.10% # Number of instructions fetched each cycle (Total)
system.switch_cpus0.fetch.rateDist::8        11352291      4.90%    100.00% # Number of instructions fetched each cycle (Total)
system.switch_cpus0.fetch.rateDist::overflows            0      0.00%    100.00% # Number of instructions fetched each cycle (Total)
system.switch_cpus0.fetch.rateDist::min_value            0                       # Number of instructions fetched each cycle (Total)
system.switch_cpus0.fetch.rateDist::max_value            8                       # Number of instructions fetched each cycle (Total)
system.switch_cpus0.fetch.rateDist::total    231622136                       # Number of instructions fetched each cycle (Total)
system.switch_cpus0.fetch.branchRate         0.081917                       # Number of branch fetches per cycle
system.switch_cpus0.fetch.rate               0.460242                       # Number of inst fetches per cycle
system.switch_cpus0.decode.IdleCycles       196733802                       # Number of cycles decode is idle
system.switch_cpus0.decode.BlockedCycles      7184114                       # Number of cycles decode is blocked
system.switch_cpus0.decode.RunCycles         24121695                       # Number of cycles decode is running
system.switch_cpus0.decode.UnblockCycles        45672                       # Number of cycles decode is unblocking
system.switch_cpus0.decode.SquashCycles       3536852                       # Number of cycles decode is squashing
system.switch_cpus0.decode.BranchResolved      3409570                       # Number of times decode resolved a branch
system.switch_cpus0.decode.BranchMispred          238                       # Number of times decode detected a branch misprediction
system.switch_cpus0.decode.DecodedInsts     142236448                       # Number of instructions handled by decode
system.switch_cpus0.decode.SquashedInsts         1336                       # Number of squashed instructions handled by decode
system.switch_cpus0.rename.SquashCycles       3536852                       # Number of cycles rename is squashing
system.switch_cpus0.rename.IdleCycles       197290148                       # Number of cycles rename is idle
system.switch_cpus0.rename.BlockCycles        1361925                       # Number of cycles rename is blocking
system.switch_cpus0.rename.serializeStallCycles      4419092                       # count of cycles rename stalled for serializing inst
system.switch_cpus0.rename.RunCycles         23620371                       # Number of cycles rename is running
system.switch_cpus0.rename.UnblockCycles      1393747                       # Number of cycles rename is unblocking
system.switch_cpus0.rename.RenamedInsts     142146308                       # Number of instructions processed by rename
system.switch_cpus0.rename.ROBFullEvents         1301                       # Number of times rename has blocked due to ROB full
system.switch_cpus0.rename.IQFullEvents        315631                       # Number of times rename has blocked due to IQ full
system.switch_cpus0.rename.LSQFullEvents       556583                       # Number of times rename has blocked due to LSQ full
system.switch_cpus0.rename.FullRegisterEvents         1158                       # Number of times there has been no free registers
system.switch_cpus0.rename.RenamedOperands    197536346                       # Number of destination operands rename has renamed
system.switch_cpus0.rename.RenameLookups    661554331                       # Number of register rename lookups that rename has made
system.switch_cpus0.rename.int_rename_lookups    661554331                       # Number of integer rename lookups
system.switch_cpus0.rename.CommittedMaps    170748560                       # Number of HB maps that are committed
system.switch_cpus0.rename.UndoneMaps        26787741                       # Number of HB maps that are undone due to squashing
system.switch_cpus0.rename.serializingInsts        39112                       # count of serializing insts renamed
system.switch_cpus0.rename.tempSerializingInsts        22443                       # count of temporary serializing insts renamed
system.switch_cpus0.rename.skidInsts          4050215                       # count of insts added to the skid buffer
system.switch_cpus0.memDep0.insertedLoads     13493619                       # Number of loads inserted to the mem dependence unit.
system.switch_cpus0.memDep0.insertedStores      7401789                       # Number of stores inserted to the mem dependence unit.
system.switch_cpus0.memDep0.conflictingLoads       131248                       # Number of conflicting loads.
system.switch_cpus0.memDep0.conflictingStores      1665819                       # Number of conflicting stores.
system.switch_cpus0.iq.iqInstsAdded         141951164                       # Number of instructions added to the IQ (excludes non-spec)
system.switch_cpus0.iq.iqNonSpecInstsAdded        39099                       # Number of non-speculative instructions added to the IQ
system.switch_cpus0.iq.iqInstsIssued        134637928                       # Number of instructions issued
system.switch_cpus0.iq.iqSquashedInstsIssued        26811                       # Number of squashed instructions issued
system.switch_cpus0.iq.iqSquashedInstsExamined     16141416                       # Number of squashed instructions iterated over during squash; mainly for profiling
system.switch_cpus0.iq.iqSquashedOperandsExamined     38341574                       # Number of squashed operands that are examined and possibly removed from graph
system.switch_cpus0.iq.iqSquashedNonSpecRemoved         5763                       # Number of squashed non-spec instructions that were removed
system.switch_cpus0.iq.issued_per_cycle::samples    231622136                       # Number of insts issued each cycle
system.switch_cpus0.iq.issued_per_cycle::mean     0.581283                       # Number of insts issued each cycle
system.switch_cpus0.iq.issued_per_cycle::stdev     1.270193                       # Number of insts issued each cycle
system.switch_cpus0.iq.issued_per_cycle::underflows            0      0.00%      0.00% # Number of insts issued each cycle
system.switch_cpus0.iq.issued_per_cycle::0    174639216     75.40%     75.40% # Number of insts issued each cycle
system.switch_cpus0.iq.issued_per_cycle::1     23274075     10.05%     85.45% # Number of insts issued each cycle
system.switch_cpus0.iq.issued_per_cycle::2     12020851      5.19%     90.64% # Number of insts issued each cycle
system.switch_cpus0.iq.issued_per_cycle::3      9024901      3.90%     94.53% # Number of insts issued each cycle
system.switch_cpus0.iq.issued_per_cycle::4      7022239      3.03%     97.56% # Number of insts issued each cycle
system.switch_cpus0.iq.issued_per_cycle::5      2824440      1.22%     98.78% # Number of insts issued each cycle
system.switch_cpus0.iq.issued_per_cycle::6      1793096      0.77%     99.56% # Number of insts issued each cycle
system.switch_cpus0.iq.issued_per_cycle::7       908828      0.39%     99.95% # Number of insts issued each cycle
system.switch_cpus0.iq.issued_per_cycle::8       114490      0.05%    100.00% # Number of insts issued each cycle
system.switch_cpus0.iq.issued_per_cycle::overflows            0      0.00%    100.00% # Number of insts issued each cycle
system.switch_cpus0.iq.issued_per_cycle::min_value            0                       # Number of insts issued each cycle
system.switch_cpus0.iq.issued_per_cycle::max_value            8                       # Number of insts issued each cycle
system.switch_cpus0.iq.issued_per_cycle::total    231622136                       # Number of insts issued each cycle
system.switch_cpus0.iq.fu_full::No_OpClass            0      0.00%      0.00% # attempts to use FU when none available
system.switch_cpus0.iq.fu_full::IntAlu          24111     10.16%     10.16% # attempts to use FU when none available
system.switch_cpus0.iq.fu_full::IntMult             0      0.00%     10.16% # attempts to use FU when none available
system.switch_cpus0.iq.fu_full::IntDiv              0      0.00%     10.16% # attempts to use FU when none available
system.switch_cpus0.iq.fu_full::FloatAdd            0      0.00%     10.16% # attempts to use FU when none available
system.switch_cpus0.iq.fu_full::FloatCmp            0      0.00%     10.16% # attempts to use FU when none available
system.switch_cpus0.iq.fu_full::FloatCvt            0      0.00%     10.16% # attempts to use FU when none available
system.switch_cpus0.iq.fu_full::FloatMult            0      0.00%     10.16% # attempts to use FU when none available
system.switch_cpus0.iq.fu_full::FloatDiv            0      0.00%     10.16% # attempts to use FU when none available
system.switch_cpus0.iq.fu_full::FloatSqrt            0      0.00%     10.16% # attempts to use FU when none available
system.switch_cpus0.iq.fu_full::SimdAdd             0      0.00%     10.16% # attempts to use FU when none available
system.switch_cpus0.iq.fu_full::SimdAddAcc            0      0.00%     10.16% # attempts to use FU when none available
system.switch_cpus0.iq.fu_full::SimdAlu             0      0.00%     10.16% # attempts to use FU when none available
system.switch_cpus0.iq.fu_full::SimdCmp             0      0.00%     10.16% # attempts to use FU when none available
system.switch_cpus0.iq.fu_full::SimdCvt             0      0.00%     10.16% # attempts to use FU when none available
system.switch_cpus0.iq.fu_full::SimdMisc            0      0.00%     10.16% # attempts to use FU when none available
system.switch_cpus0.iq.fu_full::SimdMult            0      0.00%     10.16% # attempts to use FU when none available
system.switch_cpus0.iq.fu_full::SimdMultAcc            0      0.00%     10.16% # attempts to use FU when none available
system.switch_cpus0.iq.fu_full::SimdShift            0      0.00%     10.16% # attempts to use FU when none available
system.switch_cpus0.iq.fu_full::SimdShiftAcc            0      0.00%     10.16% # attempts to use FU when none available
system.switch_cpus0.iq.fu_full::SimdSqrt            0      0.00%     10.16% # attempts to use FU when none available
system.switch_cpus0.iq.fu_full::SimdFloatAdd            0      0.00%     10.16% # attempts to use FU when none available
system.switch_cpus0.iq.fu_full::SimdFloatAlu            0      0.00%     10.16% # attempts to use FU when none available
system.switch_cpus0.iq.fu_full::SimdFloatCmp            0      0.00%     10.16% # attempts to use FU when none available
system.switch_cpus0.iq.fu_full::SimdFloatCvt            0      0.00%     10.16% # attempts to use FU when none available
system.switch_cpus0.iq.fu_full::SimdFloatDiv            0      0.00%     10.16% # attempts to use FU when none available
system.switch_cpus0.iq.fu_full::SimdFloatMisc            0      0.00%     10.16% # attempts to use FU when none available
system.switch_cpus0.iq.fu_full::SimdFloatMult            0      0.00%     10.16% # attempts to use FU when none available
system.switch_cpus0.iq.fu_full::SimdFloatMultAcc            0      0.00%     10.16% # attempts to use FU when none available
system.switch_cpus0.iq.fu_full::SimdFloatSqrt            0      0.00%     10.16% # attempts to use FU when none available
system.switch_cpus0.iq.fu_full::MemRead         86904     36.63%     46.80% # attempts to use FU when none available
system.switch_cpus0.iq.fu_full::MemWrite       126221     53.20%    100.00% # attempts to use FU when none available
system.switch_cpus0.iq.fu_full::IprAccess            0      0.00%    100.00% # attempts to use FU when none available
system.switch_cpus0.iq.fu_full::InstPrefetch            0      0.00%    100.00% # attempts to use FU when none available
system.switch_cpus0.iq.FU_type_0::No_OpClass            0      0.00%      0.00% # Type of FU issued
system.switch_cpus0.iq.FU_type_0::IntAlu    112798753     83.78%     83.78% # Type of FU issued
system.switch_cpus0.iq.FU_type_0::IntMult      2088497      1.55%     85.33% # Type of FU issued
system.switch_cpus0.iq.FU_type_0::IntDiv            0      0.00%     85.33% # Type of FU issued
system.switch_cpus0.iq.FU_type_0::FloatAdd            0      0.00%     85.33% # Type of FU issued
system.switch_cpus0.iq.FU_type_0::FloatCmp            0      0.00%     85.33% # Type of FU issued
system.switch_cpus0.iq.FU_type_0::FloatCvt            0      0.00%     85.33% # Type of FU issued
system.switch_cpus0.iq.FU_type_0::FloatMult            0      0.00%     85.33% # Type of FU issued
system.switch_cpus0.iq.FU_type_0::FloatDiv            0      0.00%     85.33% # Type of FU issued
system.switch_cpus0.iq.FU_type_0::FloatSqrt            0      0.00%     85.33% # Type of FU issued
system.switch_cpus0.iq.FU_type_0::SimdAdd            0      0.00%     85.33% # Type of FU issued
system.switch_cpus0.iq.FU_type_0::SimdAddAcc            0      0.00%     85.33% # Type of FU issued
system.switch_cpus0.iq.FU_type_0::SimdAlu            0      0.00%     85.33% # Type of FU issued
system.switch_cpus0.iq.FU_type_0::SimdCmp            0      0.00%     85.33% # Type of FU issued
system.switch_cpus0.iq.FU_type_0::SimdCvt            0      0.00%     85.33% # Type of FU issued
system.switch_cpus0.iq.FU_type_0::SimdMisc            0      0.00%     85.33% # Type of FU issued
system.switch_cpus0.iq.FU_type_0::SimdMult            0      0.00%     85.33% # Type of FU issued
system.switch_cpus0.iq.FU_type_0::SimdMultAcc            0      0.00%     85.33% # Type of FU issued
system.switch_cpus0.iq.FU_type_0::SimdShift            0      0.00%     85.33% # Type of FU issued
system.switch_cpus0.iq.FU_type_0::SimdShiftAcc            0      0.00%     85.33% # Type of FU issued
system.switch_cpus0.iq.FU_type_0::SimdSqrt            0      0.00%     85.33% # Type of FU issued
system.switch_cpus0.iq.FU_type_0::SimdFloatAdd            0      0.00%     85.33% # Type of FU issued
system.switch_cpus0.iq.FU_type_0::SimdFloatAlu            0      0.00%     85.33% # Type of FU issued
system.switch_cpus0.iq.FU_type_0::SimdFloatCmp            0      0.00%     85.33% # Type of FU issued
system.switch_cpus0.iq.FU_type_0::SimdFloatCvt            0      0.00%     85.33% # Type of FU issued
system.switch_cpus0.iq.FU_type_0::SimdFloatDiv            0      0.00%     85.33% # Type of FU issued
system.switch_cpus0.iq.FU_type_0::SimdFloatMisc        16669      0.01%     85.34% # Type of FU issued
system.switch_cpus0.iq.FU_type_0::SimdFloatMult            0      0.00%     85.34% # Type of FU issued
system.switch_cpus0.iq.FU_type_0::SimdFloatMultAcc            0      0.00%     85.34% # Type of FU issued
system.switch_cpus0.iq.FU_type_0::SimdFloatSqrt            0      0.00%     85.34% # Type of FU issued
system.switch_cpus0.iq.FU_type_0::MemRead     12388633      9.20%     94.54% # Type of FU issued
system.switch_cpus0.iq.FU_type_0::MemWrite      7345376      5.46%    100.00% # Type of FU issued
system.switch_cpus0.iq.FU_type_0::IprAccess            0      0.00%    100.00% # Type of FU issued
system.switch_cpus0.iq.FU_type_0::InstPrefetch            0      0.00%    100.00% # Type of FU issued
system.switch_cpus0.iq.FU_type_0::total     134637928                       # Type of FU issued
system.switch_cpus0.iq.rate                  0.533749                       # Inst issue rate
system.switch_cpus0.iq.fu_busy_cnt             237236                       # FU busy when requested
system.switch_cpus0.iq.fu_busy_rate          0.001762                       # FU busy rate (busy events/executed inst)
system.switch_cpus0.iq.int_inst_queue_reads    501162035                       # Number of integer instruction queue reads
system.switch_cpus0.iq.int_inst_queue_writes    158132019                       # Number of integer instruction queue writes
system.switch_cpus0.iq.int_inst_queue_wakeup_accesses    132621934                       # Number of integer instruction queue wakeup accesses
system.switch_cpus0.iq.fp_inst_queue_reads            0                       # Number of floating instruction queue reads
system.switch_cpus0.iq.fp_inst_queue_writes            0                       # Number of floating instruction queue writes
system.switch_cpus0.iq.fp_inst_queue_wakeup_accesses            0                       # Number of floating instruction queue wakeup accesses
system.switch_cpus0.iq.int_alu_accesses     134875164                       # Number of integer alu accesses
system.switch_cpus0.iq.fp_alu_accesses              0                       # Number of floating point alu accesses
system.switch_cpus0.iew.lsq.thread0.forwLoads       316029                       # Number of loads that had data forwarded from stores
system.switch_cpus0.iew.lsq.thread0.invAddrLoads            0                       # Number of loads ignored due to an invalid address
system.switch_cpus0.iew.lsq.thread0.squashedLoads      2225748                       # Number of loads squashed
system.switch_cpus0.iew.lsq.thread0.ignoredResponses           41                       # Number of memory responses ignored because the instruction is squashed
system.switch_cpus0.iew.lsq.thread0.memOrderViolation          340                       # Number of memory ordering violations
system.switch_cpus0.iew.lsq.thread0.squashedStores       179376                       # Number of stores squashed
system.switch_cpus0.iew.lsq.thread0.invAddrSwpfs            0                       # Number of software prefetches ignored due to an invalid address
system.switch_cpus0.iew.lsq.thread0.blockedLoads            0                       # Number of blocked loads due to partial load-store forwarding
system.switch_cpus0.iew.lsq.thread0.rescheduledLoads            0                       # Number of loads that were rescheduled
system.switch_cpus0.iew.lsq.thread0.cacheBlocked          115                       # Number of times an access to memory failed due to the cache being blocked
system.switch_cpus0.iew.iewIdleCycles               0                       # Number of cycles IEW is idle
system.switch_cpus0.iew.iewSquashCycles       3536852                       # Number of cycles IEW is squashing
system.switch_cpus0.iew.iewBlockCycles        1089057                       # Number of cycles IEW is blocking
system.switch_cpus0.iew.iewUnblockCycles       128077                       # Number of cycles IEW is unblocking
system.switch_cpus0.iew.iewDispatchedInsts    141990264                       # Number of instructions dispatched to IQ
system.switch_cpus0.iew.iewDispSquashedInsts        65106                       # Number of squashed instructions skipped by dispatch
system.switch_cpus0.iew.iewDispLoadInsts     13493619                       # Number of dispatched load instructions
system.switch_cpus0.iew.iewDispStoreInsts      7401789                       # Number of dispatched store instructions
system.switch_cpus0.iew.iewDispNonSpecInsts        22431                       # Number of dispatched non-speculative instructions
system.switch_cpus0.iew.iewIQFullEvents         94765                       # Number of times the IQ has become full, causing a stall
system.switch_cpus0.iew.iewLSQFullEvents            0                       # Number of times the LSQ has become full, causing a stall
system.switch_cpus0.iew.memOrderViolationEvents          340                       # Number of memory order violations
system.switch_cpus0.iew.predictedTakenIncorrect      1172953                       # Number of branches that were predicted taken incorrectly
system.switch_cpus0.iew.predictedNotTakenIncorrect      1142611                       # Number of branches that were predicted not taken incorrectly
system.switch_cpus0.iew.branchMispredicts      2315564                       # Number of branch mispredicts detected at execute
system.switch_cpus0.iew.iewExecutedInsts    132812470                       # Number of executed instructions
system.switch_cpus0.iew.iewExecLoadInsts     11682908                       # Number of load instructions executed
system.switch_cpus0.iew.iewExecSquashedInsts      1825454                       # Number of squashed instructions skipped in execute
system.switch_cpus0.iew.exec_swp                    0                       # number of swp insts executed
system.switch_cpus0.iew.exec_nop                    1                       # number of nop insts executed
system.switch_cpus0.iew.exec_refs            19026692                       # number of memory reference insts executed
system.switch_cpus0.iew.exec_branches        18772877                       # Number of branches executed
system.switch_cpus0.iew.exec_stores           7343784                       # Number of stores executed
system.switch_cpus0.iew.exec_rate            0.526512                       # Inst execution rate
system.switch_cpus0.iew.wb_sent             132622130                       # cumulative count of insts sent to commit
system.switch_cpus0.iew.wb_count            132621934                       # cumulative count of insts written-back
system.switch_cpus0.iew.wb_producers         76337031                       # num instructions producing a value
system.switch_cpus0.iew.wb_consumers        204468134                       # num instructions consuming a value
system.switch_cpus0.iew.wb_penalized                0                       # number of instrctions required to write to 'other' IQ
system.switch_cpus0.iew.wb_rate              0.525757                       # insts written-back per cycle
system.switch_cpus0.iew.wb_fanout            0.373344                       # average fanout of values written-back
system.switch_cpus0.iew.wb_penalized_rate            0                       # fraction of instructions written-back that wrote to 'other' IQ
system.switch_cpus0.commit.commitCommittedInsts    100000002                       # The number of committed instructions
system.switch_cpus0.commit.commitCommittedOps    122904055                       # The number of committed instructions
system.switch_cpus0.commit.commitSquashedInsts     19094424                       # The number of squashed insts skipped by commit
system.switch_cpus0.commit.commitNonSpecStalls        33336                       # The number of times commit has been forced to stall to communicate backwards
system.switch_cpus0.commit.branchMispredicts      2044272                       # The number of times a branch was mispredicted
system.switch_cpus0.commit.committed_per_cycle::samples    228085284                       # Number of insts commited each cycle
system.switch_cpus0.commit.committed_per_cycle::mean     0.538851                       # Number of insts commited each cycle
system.switch_cpus0.commit.committed_per_cycle::stdev     1.387930                       # Number of insts commited each cycle
system.switch_cpus0.commit.committed_per_cycle::underflows            0      0.00%      0.00% # Number of insts commited each cycle
system.switch_cpus0.commit.committed_per_cycle::0    177799903     77.95%     77.95% # Number of insts commited each cycle
system.switch_cpus0.commit.committed_per_cycle::1     24810388     10.88%     88.83% # Number of insts commited each cycle
system.switch_cpus0.commit.committed_per_cycle::2      9413186      4.13%     92.96% # Number of insts commited each cycle
system.switch_cpus0.commit.committed_per_cycle::3      4546537      1.99%     94.95% # Number of insts commited each cycle
system.switch_cpus0.commit.committed_per_cycle::4      3782172      1.66%     96.61% # Number of insts commited each cycle
system.switch_cpus0.commit.committed_per_cycle::5      2248896      0.99%     97.60% # Number of insts commited each cycle
system.switch_cpus0.commit.committed_per_cycle::6      1888748      0.83%     98.42% # Number of insts commited each cycle
system.switch_cpus0.commit.committed_per_cycle::7       841604      0.37%     98.79% # Number of insts commited each cycle
system.switch_cpus0.commit.committed_per_cycle::8      2753850      1.21%    100.00% # Number of insts commited each cycle
system.switch_cpus0.commit.committed_per_cycle::overflows            0      0.00%    100.00% # Number of insts commited each cycle
system.switch_cpus0.commit.committed_per_cycle::min_value            0                       # Number of insts commited each cycle
system.switch_cpus0.commit.committed_per_cycle::max_value            8                       # Number of insts commited each cycle
system.switch_cpus0.commit.committed_per_cycle::total    228085284                       # Number of insts commited each cycle
system.switch_cpus0.commit.committedInsts    100000002                       # Number of instructions committed
system.switch_cpus0.commit.committedOps     122904055                       # Number of ops (including micro ops) committed
system.switch_cpus0.commit.swp_count                0                       # Number of s/w prefetches committed
system.switch_cpus0.commit.refs              18490280                       # Number of memory references committed
system.switch_cpus0.commit.loads             11267871                       # Number of loads committed
system.switch_cpus0.commit.membars              16668                       # Number of memory barriers committed
system.switch_cpus0.commit.branches          17627217                       # Number of branches committed
system.switch_cpus0.commit.fp_insts                 0                       # Number of committed floating point instructions.
system.switch_cpus0.commit.int_insts        110781424                       # Number of committed integer instructions.
system.switch_cpus0.commit.function_calls      2507745                       # Number of function calls committed.
system.switch_cpus0.commit.bw_lim_events      2753850                       # number cycles where commit BW limit reached
system.switch_cpus0.commit.bw_limited               0                       # number of insts not committed due to BW limits
system.switch_cpus0.rob.rob_reads           367329913                       # The number of ROB reads
system.switch_cpus0.rob.rob_writes          287534059                       # The number of ROB writes
system.switch_cpus0.timesIdled                3098515                       # Number of times that the entire CPU went into an idle state and unscheduled itself
system.switch_cpus0.idleCycles               20627580                       # Total number of cycles that the CPU has spent unscheduled due to idling
system.switch_cpus0.committedInsts          100000002                       # Number of Instructions Simulated
system.switch_cpus0.committedOps            122904055                       # Number of Ops (including micro ops) Simulated
system.switch_cpus0.committedInsts_total    100000002                       # Number of Instructions Simulated
system.switch_cpus0.cpi                      2.522497                       # CPI: Cycles Per Instruction
system.switch_cpus0.cpi_total                2.522497                       # CPI: Total CPI of All Threads
system.switch_cpus0.ipc                      0.396433                       # IPC: Instructions Per Cycle
system.switch_cpus0.ipc_total                0.396433                       # IPC: Total IPC of All Threads
system.switch_cpus0.int_regfile_reads       598601349                       # number of integer regfile reads
system.switch_cpus0.int_regfile_writes      184022383                       # number of integer regfile writes
system.switch_cpus0.misc_regfile_reads      132386157                       # number of misc regfile reads
system.switch_cpus0.misc_regfile_writes         33336                       # number of misc regfile writes
system.switch_cpus1.dtb.inst_hits                   0                       # ITB inst hits
system.switch_cpus1.dtb.inst_misses                 0                       # ITB inst misses
system.switch_cpus1.dtb.read_hits                   0                       # DTB read hits
system.switch_cpus1.dtb.read_misses                 0                       # DTB read misses
system.switch_cpus1.dtb.write_hits                  0                       # DTB write hits
system.switch_cpus1.dtb.write_misses                0                       # DTB write misses
system.switch_cpus1.dtb.flush_tlb                   0                       # Number of times complete TLB was flushed
system.switch_cpus1.dtb.flush_tlb_mva               0                       # Number of times TLB was flushed by MVA
system.switch_cpus1.dtb.flush_tlb_mva_asid            0                       # Number of times TLB was flushed by MVA & ASID
system.switch_cpus1.dtb.flush_tlb_asid              0                       # Number of times TLB was flushed by ASID
system.switch_cpus1.dtb.flush_entries               0                       # Number of entries that have been flushed from TLB
system.switch_cpus1.dtb.align_faults                0                       # Number of TLB faults due to alignment restrictions
system.switch_cpus1.dtb.prefetch_faults             0                       # Number of TLB faults due to prefetch
system.switch_cpus1.dtb.domain_faults               0                       # Number of TLB faults due to domain restrictions
system.switch_cpus1.dtb.perms_faults                0                       # Number of TLB faults due to permissions restrictions
system.switch_cpus1.dtb.read_accesses               0                       # DTB read accesses
system.switch_cpus1.dtb.write_accesses              0                       # DTB write accesses
system.switch_cpus1.dtb.inst_accesses               0                       # ITB inst accesses
system.switch_cpus1.dtb.hits                        0                       # DTB hits
system.switch_cpus1.dtb.misses                      0                       # DTB misses
system.switch_cpus1.dtb.accesses                    0                       # DTB accesses
system.switch_cpus1.itb.inst_hits                   0                       # ITB inst hits
system.switch_cpus1.itb.inst_misses                 0                       # ITB inst misses
system.switch_cpus1.itb.read_hits                   0                       # DTB read hits
system.switch_cpus1.itb.read_misses                 0                       # DTB read misses
system.switch_cpus1.itb.write_hits                  0                       # DTB write hits
system.switch_cpus1.itb.write_misses                0                       # DTB write misses
system.switch_cpus1.itb.flush_tlb                   0                       # Number of times complete TLB was flushed
system.switch_cpus1.itb.flush_tlb_mva               0                       # Number of times TLB was flushed by MVA
system.switch_cpus1.itb.flush_tlb_mva_asid            0                       # Number of times TLB was flushed by MVA & ASID
system.switch_cpus1.itb.flush_tlb_asid              0                       # Number of times TLB was flushed by ASID
system.switch_cpus1.itb.flush_entries               0                       # Number of entries that have been flushed from TLB
system.switch_cpus1.itb.align_faults                0                       # Number of TLB faults due to alignment restrictions
system.switch_cpus1.itb.prefetch_faults             0                       # Number of TLB faults due to prefetch
system.switch_cpus1.itb.domain_faults               0                       # Number of TLB faults due to domain restrictions
system.switch_cpus1.itb.perms_faults                0                       # Number of TLB faults due to permissions restrictions
system.switch_cpus1.itb.read_accesses               0                       # DTB read accesses
system.switch_cpus1.itb.write_accesses              0                       # DTB write accesses
system.switch_cpus1.itb.inst_accesses               0                       # ITB inst accesses
system.switch_cpus1.itb.hits                        0                       # DTB hits
system.switch_cpus1.itb.misses                      0                       # DTB misses
system.switch_cpus1.itb.accesses                    0                       # DTB accesses
system.cpu1.workload.num_syscalls                   0                       # Number of system calls
system.switch_cpus1.numCycles               252249716                       # number of cpu cycles simulated
system.switch_cpus1.numWorkItemsStarted             0                       # number of work items this cpu started
system.switch_cpus1.numWorkItemsCompleted            0                       # number of work items this cpu completed
system.switch_cpus1.BPredUnit.lookups        21588600                       # Number of BP lookups
system.switch_cpus1.BPredUnit.condPredicted     17582452                       # Number of conditional branches predicted
system.switch_cpus1.BPredUnit.condIncorrect      1930022                       # Number of conditional branches incorrect
system.switch_cpus1.BPredUnit.BTBLookups      8693488                       # Number of BTB lookups
system.switch_cpus1.BPredUnit.BTBHits         8191695                       # Number of BTB hits
system.switch_cpus1.BPredUnit.BTBCorrect            0                       # Number of correct BTB predictions (this stat may not work properly.
system.switch_cpus1.BPredUnit.usedRAS         2253651                       # Number of times the RAS was used to get a target.
system.switch_cpus1.BPredUnit.RASInCorrect        87834                       # Number of incorrect RAS predictions.
system.switch_cpus1.fetch.icacheStallCycles    195010835                       # Number of cycles fetch is stalled on an Icache miss
system.switch_cpus1.fetch.Insts             121453603                       # Number of instructions fetch has processed
system.switch_cpus1.fetch.Branches           21588600                       # Number of branches that fetch encountered
system.switch_cpus1.fetch.predictedBranches     10445346                       # Number of branches that fetch has predicted taken
system.switch_cpus1.fetch.Cycles             25666637                       # Number of cycles fetch has run and was not squashing or blocked
system.switch_cpus1.fetch.SquashCycles        5751977                       # Number of cycles fetch has spent squashing
system.switch_cpus1.fetch.BlockedCycles       8932863                       # Number of cycles fetch has spent blocked
system.switch_cpus1.fetch.PendingTrapStallCycles            4                       # Number of stall cycles due to pending traps
system.switch_cpus1.fetch.CacheLines         11928113                       # Number of cache lines fetched
system.switch_cpus1.fetch.IcacheSquashes      1928041                       # Number of outstanding Icache misses that were squashed
system.switch_cpus1.fetch.rateDist::samples    233402629                       # Number of instructions fetched each cycle (Total)
system.switch_cpus1.fetch.rateDist::mean     0.629279                       # Number of instructions fetched each cycle (Total)
system.switch_cpus1.fetch.rateDist::stdev     1.997992                       # Number of instructions fetched each cycle (Total)
system.switch_cpus1.fetch.rateDist::underflows            0      0.00%      0.00% # Number of instructions fetched each cycle (Total)
system.switch_cpus1.fetch.rateDist::0       207735992     89.00%     89.00% # Number of instructions fetched each cycle (Total)
system.switch_cpus1.fetch.rateDist::1         2748662      1.18%     90.18% # Number of instructions fetched each cycle (Total)
system.switch_cpus1.fetch.rateDist::2         2156405      0.92%     91.10% # Number of instructions fetched each cycle (Total)
system.switch_cpus1.fetch.rateDist::3         2322284      0.99%     92.10% # Number of instructions fetched each cycle (Total)
system.switch_cpus1.fetch.rateDist::4         1968315      0.84%     92.94% # Number of instructions fetched each cycle (Total)
system.switch_cpus1.fetch.rateDist::5         1107097      0.47%     93.42% # Number of instructions fetched each cycle (Total)
system.switch_cpus1.fetch.rateDist::6          760241      0.33%     93.74% # Number of instructions fetched each cycle (Total)
system.switch_cpus1.fetch.rateDist::7         1952261      0.84%     94.58% # Number of instructions fetched each cycle (Total)
system.switch_cpus1.fetch.rateDist::8        12651372      5.42%    100.00% # Number of instructions fetched each cycle (Total)
system.switch_cpus1.fetch.rateDist::overflows            0      0.00%    100.00% # Number of instructions fetched each cycle (Total)
system.switch_cpus1.fetch.rateDist::min_value            0                       # Number of instructions fetched each cycle (Total)
system.switch_cpus1.fetch.rateDist::max_value            8                       # Number of instructions fetched each cycle (Total)
system.switch_cpus1.fetch.rateDist::total    233402629                       # Number of instructions fetched each cycle (Total)
system.switch_cpus1.fetch.branchRate         0.085584                       # Number of branch fetches per cycle
system.switch_cpus1.fetch.rate               0.481482                       # Number of inst fetches per cycle
system.switch_cpus1.decode.IdleCycles       192700873                       # Number of cycles decode is idle
system.switch_cpus1.decode.BlockedCycles     11282020                       # Number of cycles decode is blocked
system.switch_cpus1.decode.RunCycles         25519390                       # Number of cycles decode is running
system.switch_cpus1.decode.UnblockCycles       114647                       # Number of cycles decode is unblocking
system.switch_cpus1.decode.SquashCycles       3785697                       # Number of cycles decode is squashing
system.switch_cpus1.decode.BranchResolved      3679884                       # Number of times decode resolved a branch
system.switch_cpus1.decode.BranchMispred         6594                       # Number of times decode detected a branch misprediction
system.switch_cpus1.decode.DecodedInsts     146594232                       # Number of instructions handled by decode
system.switch_cpus1.decode.SquashedInsts        52184                       # Number of squashed instructions handled by decode
system.switch_cpus1.rename.SquashCycles       3785697                       # Number of cycles rename is squashing
system.switch_cpus1.rename.IdleCycles       192960789                       # Number of cycles rename is idle
system.switch_cpus1.rename.BlockCycles        7814875                       # Number of cycles rename is blocking
system.switch_cpus1.rename.serializeStallCycles      2320503                       # count of cycles rename stalled for serializing inst
system.switch_cpus1.rename.RunCycles         25378045                       # Number of cycles rename is running
system.switch_cpus1.rename.UnblockCycles      1142718                       # Number of cycles rename is unblocking
system.switch_cpus1.rename.RenamedInsts     146377715                       # Number of instructions processed by rename
system.switch_cpus1.rename.ROBFullEvents         1431                       # Number of times rename has blocked due to ROB full
system.switch_cpus1.rename.IQFullEvents        435311                       # Number of times rename has blocked due to IQ full
system.switch_cpus1.rename.LSQFullEvents       563342                       # Number of times rename has blocked due to LSQ full
system.switch_cpus1.rename.FullRegisterEvents        18016                       # Number of times there has been no free registers
system.switch_cpus1.rename.RenamedOperands    204863683                       # Number of destination operands rename has renamed
system.switch_cpus1.rename.RenameLookups    682165249                       # Number of register rename lookups that rename has made
system.switch_cpus1.rename.int_rename_lookups    682165249                       # Number of integer rename lookups
system.switch_cpus1.rename.CommittedMaps    170000666                       # Number of HB maps that are committed
system.switch_cpus1.rename.UndoneMaps        34863013                       # Number of HB maps that are undone due to squashing
system.switch_cpus1.rename.serializingInsts        33390                       # count of serializing insts renamed
system.switch_cpus1.rename.tempSerializingInsts        17155                       # count of temporary serializing insts renamed
system.switch_cpus1.rename.skidInsts          3628270                       # count of insts added to the skid buffer
system.switch_cpus1.memDep0.insertedLoads     14058199                       # Number of loads inserted to the mem dependence unit.
system.switch_cpus1.memDep0.insertedStores      7900786                       # Number of stores inserted to the mem dependence unit.
system.switch_cpus1.memDep0.conflictingLoads       294809                       # Number of conflicting loads.
system.switch_cpus1.memDep0.conflictingStores      1726447                       # Number of conflicting stores.
system.switch_cpus1.iq.iqInstsAdded         145858809                       # Number of instructions added to the IQ (excludes non-spec)
system.switch_cpus1.iq.iqNonSpecInstsAdded        33387                       # Number of non-speculative instructions added to the IQ
system.switch_cpus1.iq.iqInstsIssued        138492461                       # Number of instructions issued
system.switch_cpus1.iq.iqSquashedInstsIssued        81768                       # Number of squashed instructions issued
system.switch_cpus1.iq.iqSquashedInstsExamined     20250347                       # Number of squashed instructions iterated over during squash; mainly for profiling
system.switch_cpus1.iq.iqSquashedOperandsExamined     41623184                       # Number of squashed operands that are examined and possibly removed from graph
system.switch_cpus1.iq.iqSquashedNonSpecRemoved          915                       # Number of squashed non-spec instructions that were removed
system.switch_cpus1.iq.issued_per_cycle::samples    233402629                       # Number of insts issued each cycle
system.switch_cpus1.iq.issued_per_cycle::mean     0.593363                       # Number of insts issued each cycle
system.switch_cpus1.iq.issued_per_cycle::stdev     1.298723                       # Number of insts issued each cycle
system.switch_cpus1.iq.issued_per_cycle::underflows            0      0.00%      0.00% # Number of insts issued each cycle
system.switch_cpus1.iq.issued_per_cycle::0    174952321     74.96%     74.96% # Number of insts issued each cycle
system.switch_cpus1.iq.issued_per_cycle::1     24653434     10.56%     85.52% # Number of insts issued each cycle
system.switch_cpus1.iq.issued_per_cycle::2     12448962      5.33%     90.85% # Number of insts issued each cycle
system.switch_cpus1.iq.issued_per_cycle::3      8053256      3.45%     94.30% # Number of insts issued each cycle
system.switch_cpus1.iq.issued_per_cycle::4      6637795      2.84%     97.15% # Number of insts issued each cycle
system.switch_cpus1.iq.issued_per_cycle::5      2604000      1.12%     98.26% # Number of insts issued each cycle
system.switch_cpus1.iq.issued_per_cycle::6      3213414      1.38%     99.64% # Number of insts issued each cycle
system.switch_cpus1.iq.issued_per_cycle::7       785905      0.34%     99.98% # Number of insts issued each cycle
system.switch_cpus1.iq.issued_per_cycle::8        53542      0.02%    100.00% # Number of insts issued each cycle
system.switch_cpus1.iq.issued_per_cycle::overflows            0      0.00%    100.00% # Number of insts issued each cycle
system.switch_cpus1.iq.issued_per_cycle::min_value            0                       # Number of insts issued each cycle
system.switch_cpus1.iq.issued_per_cycle::max_value            8                       # Number of insts issued each cycle
system.switch_cpus1.iq.issued_per_cycle::total    233402629                       # Number of insts issued each cycle
system.switch_cpus1.iq.fu_full::No_OpClass            0      0.00%      0.00% # attempts to use FU when none available
system.switch_cpus1.iq.fu_full::IntAlu         971446     75.51%     75.51% # attempts to use FU when none available
system.switch_cpus1.iq.fu_full::IntMult             0      0.00%     75.51% # attempts to use FU when none available
system.switch_cpus1.iq.fu_full::IntDiv              0      0.00%     75.51% # attempts to use FU when none available
system.switch_cpus1.iq.fu_full::FloatAdd            0      0.00%     75.51% # attempts to use FU when none available
system.switch_cpus1.iq.fu_full::FloatCmp            0      0.00%     75.51% # attempts to use FU when none available
system.switch_cpus1.iq.fu_full::FloatCvt            0      0.00%     75.51% # attempts to use FU when none available
system.switch_cpus1.iq.fu_full::FloatMult            0      0.00%     75.51% # attempts to use FU when none available
system.switch_cpus1.iq.fu_full::FloatDiv            0      0.00%     75.51% # attempts to use FU when none available
system.switch_cpus1.iq.fu_full::FloatSqrt            0      0.00%     75.51% # attempts to use FU when none available
system.switch_cpus1.iq.fu_full::SimdAdd             0      0.00%     75.51% # attempts to use FU when none available
system.switch_cpus1.iq.fu_full::SimdAddAcc            0      0.00%     75.51% # attempts to use FU when none available
system.switch_cpus1.iq.fu_full::SimdAlu             0      0.00%     75.51% # attempts to use FU when none available
system.switch_cpus1.iq.fu_full::SimdCmp             0      0.00%     75.51% # attempts to use FU when none available
system.switch_cpus1.iq.fu_full::SimdCvt             0      0.00%     75.51% # attempts to use FU when none available
system.switch_cpus1.iq.fu_full::SimdMisc            0      0.00%     75.51% # attempts to use FU when none available
system.switch_cpus1.iq.fu_full::SimdMult            0      0.00%     75.51% # attempts to use FU when none available
system.switch_cpus1.iq.fu_full::SimdMultAcc            0      0.00%     75.51% # attempts to use FU when none available
system.switch_cpus1.iq.fu_full::SimdShift            0      0.00%     75.51% # attempts to use FU when none available
system.switch_cpus1.iq.fu_full::SimdShiftAcc            0      0.00%     75.51% # attempts to use FU when none available
system.switch_cpus1.iq.fu_full::SimdSqrt            0      0.00%     75.51% # attempts to use FU when none available
system.switch_cpus1.iq.fu_full::SimdFloatAdd            0      0.00%     75.51% # attempts to use FU when none available
system.switch_cpus1.iq.fu_full::SimdFloatAlu            0      0.00%     75.51% # attempts to use FU when none available
system.switch_cpus1.iq.fu_full::SimdFloatCmp            0      0.00%     75.51% # attempts to use FU when none available
system.switch_cpus1.iq.fu_full::SimdFloatCvt            0      0.00%     75.51% # attempts to use FU when none available
system.switch_cpus1.iq.fu_full::SimdFloatDiv            0      0.00%     75.51% # attempts to use FU when none available
system.switch_cpus1.iq.fu_full::SimdFloatMisc            0      0.00%     75.51% # attempts to use FU when none available
system.switch_cpus1.iq.fu_full::SimdFloatMult            0      0.00%     75.51% # attempts to use FU when none available
system.switch_cpus1.iq.fu_full::SimdFloatMultAcc            0      0.00%     75.51% # attempts to use FU when none available
system.switch_cpus1.iq.fu_full::SimdFloatSqrt            0      0.00%     75.51% # attempts to use FU when none available
system.switch_cpus1.iq.fu_full::MemRead        145697     11.32%     86.83% # attempts to use FU when none available
system.switch_cpus1.iq.fu_full::MemWrite       169430     13.17%    100.00% # attempts to use FU when none available
system.switch_cpus1.iq.fu_full::IprAccess            0      0.00%    100.00% # attempts to use FU when none available
system.switch_cpus1.iq.fu_full::InstPrefetch            0      0.00%    100.00% # attempts to use FU when none available
system.switch_cpus1.iq.FU_type_0::No_OpClass            0      0.00%      0.00% # Type of FU issued
system.switch_cpus1.iq.FU_type_0::IntAlu    114859874     82.94%     82.94% # Type of FU issued
system.switch_cpus1.iq.FU_type_0::IntMult      2029729      1.47%     84.40% # Type of FU issued
system.switch_cpus1.iq.FU_type_0::IntDiv            0      0.00%     84.40% # Type of FU issued
system.switch_cpus1.iq.FU_type_0::FloatAdd            0      0.00%     84.40% # Type of FU issued
system.switch_cpus1.iq.FU_type_0::FloatCmp            0      0.00%     84.40% # Type of FU issued
system.switch_cpus1.iq.FU_type_0::FloatCvt            0      0.00%     84.40% # Type of FU issued
system.switch_cpus1.iq.FU_type_0::FloatMult            0      0.00%     84.40% # Type of FU issued
system.switch_cpus1.iq.FU_type_0::FloatDiv            0      0.00%     84.40% # Type of FU issued
system.switch_cpus1.iq.FU_type_0::FloatSqrt            0      0.00%     84.40% # Type of FU issued
system.switch_cpus1.iq.FU_type_0::SimdAdd            0      0.00%     84.40% # Type of FU issued
system.switch_cpus1.iq.FU_type_0::SimdAddAcc            0      0.00%     84.40% # Type of FU issued
system.switch_cpus1.iq.FU_type_0::SimdAlu            0      0.00%     84.40% # Type of FU issued
system.switch_cpus1.iq.FU_type_0::SimdCmp            0      0.00%     84.40% # Type of FU issued
system.switch_cpus1.iq.FU_type_0::SimdCvt            0      0.00%     84.40% # Type of FU issued
system.switch_cpus1.iq.FU_type_0::SimdMisc            0      0.00%     84.40% # Type of FU issued
system.switch_cpus1.iq.FU_type_0::SimdMult            0      0.00%     84.40% # Type of FU issued
system.switch_cpus1.iq.FU_type_0::SimdMultAcc            0      0.00%     84.40% # Type of FU issued
system.switch_cpus1.iq.FU_type_0::SimdShift            0      0.00%     84.40% # Type of FU issued
system.switch_cpus1.iq.FU_type_0::SimdShiftAcc            0      0.00%     84.40% # Type of FU issued
system.switch_cpus1.iq.FU_type_0::SimdSqrt            0      0.00%     84.40% # Type of FU issued
system.switch_cpus1.iq.FU_type_0::SimdFloatAdd            0      0.00%     84.40% # Type of FU issued
system.switch_cpus1.iq.FU_type_0::SimdFloatAlu            0      0.00%     84.40% # Type of FU issued
system.switch_cpus1.iq.FU_type_0::SimdFloatCmp            0      0.00%     84.40% # Type of FU issued
system.switch_cpus1.iq.FU_type_0::SimdFloatCvt            0      0.00%     84.40% # Type of FU issued
system.switch_cpus1.iq.FU_type_0::SimdFloatDiv            0      0.00%     84.40% # Type of FU issued
system.switch_cpus1.iq.FU_type_0::SimdFloatMisc        16235      0.01%     84.41% # Type of FU issued
system.switch_cpus1.iq.FU_type_0::SimdFloatMult            0      0.00%     84.41% # Type of FU issued
system.switch_cpus1.iq.FU_type_0::SimdFloatMultAcc            0      0.00%     84.41% # Type of FU issued
system.switch_cpus1.iq.FU_type_0::SimdFloatSqrt            0      0.00%     84.41% # Type of FU issued
system.switch_cpus1.iq.FU_type_0::MemRead     13728027      9.91%     94.33% # Type of FU issued
system.switch_cpus1.iq.FU_type_0::MemWrite      7858596      5.67%    100.00% # Type of FU issued
system.switch_cpus1.iq.FU_type_0::IprAccess            0      0.00%    100.00% # Type of FU issued
system.switch_cpus1.iq.FU_type_0::InstPrefetch            0      0.00%    100.00% # Type of FU issued
system.switch_cpus1.iq.FU_type_0::total     138492461                       # Type of FU issued
system.switch_cpus1.iq.rate                  0.549029                       # Inst issue rate
system.switch_cpus1.iq.fu_busy_cnt            1286573                       # FU busy when requested
system.switch_cpus1.iq.fu_busy_rate          0.009290                       # FU busy rate (busy events/executed inst)
system.switch_cpus1.iq.int_inst_queue_reads    511755890                       # Number of integer instruction queue reads
system.switch_cpus1.iq.int_inst_queue_writes    166143246                       # Number of integer instruction queue writes
system.switch_cpus1.iq.int_inst_queue_wakeup_accesses    134648502                       # Number of integer instruction queue wakeup accesses
system.switch_cpus1.iq.fp_inst_queue_reads            0                       # Number of floating instruction queue reads
system.switch_cpus1.iq.fp_inst_queue_writes            0                       # Number of floating instruction queue writes
system.switch_cpus1.iq.fp_inst_queue_wakeup_accesses            0                       # Number of floating instruction queue wakeup accesses
system.switch_cpus1.iq.int_alu_accesses     139779034                       # Number of integer alu accesses
system.switch_cpus1.iq.fp_alu_accesses              0                       # Number of floating point alu accesses
system.switch_cpus1.iew.lsq.thread0.forwLoads       151510                       # Number of loads that had data forwarded from stores
system.switch_cpus1.iew.lsq.thread0.invAddrLoads            0                       # Number of loads ignored due to an invalid address
system.switch_cpus1.iew.lsq.thread0.squashedLoads      1815409                       # Number of loads squashed
system.switch_cpus1.iew.lsq.thread0.ignoredResponses           35                       # Number of memory responses ignored because the instruction is squashed
system.switch_cpus1.iew.lsq.thread0.memOrderViolation          704                       # Number of memory ordering violations
system.switch_cpus1.iew.lsq.thread0.squashedStores       134719                       # Number of stores squashed
system.switch_cpus1.iew.lsq.thread0.invAddrSwpfs            0                       # Number of software prefetches ignored due to an invalid address
system.switch_cpus1.iew.lsq.thread0.blockedLoads            0                       # Number of blocked loads due to partial load-store forwarding
system.switch_cpus1.iew.lsq.thread0.rescheduledLoads          539                       # Number of loads that were rescheduled
system.switch_cpus1.iew.lsq.thread0.cacheBlocked            0                       # Number of times an access to memory failed due to the cache being blocked
system.switch_cpus1.iew.iewIdleCycles               0                       # Number of cycles IEW is idle
system.switch_cpus1.iew.iewSquashCycles       3785697                       # Number of cycles IEW is squashing
system.switch_cpus1.iew.iewBlockCycles        7064232                       # Number of cycles IEW is blocking
system.switch_cpus1.iew.iewUnblockCycles       301035                       # Number of cycles IEW is unblocking
system.switch_cpus1.iew.iewDispatchedInsts    145892196                       # Number of instructions dispatched to IQ
system.switch_cpus1.iew.iewDispSquashedInsts          354                       # Number of squashed instructions skipped by dispatch
system.switch_cpus1.iew.iewDispLoadInsts     14058199                       # Number of dispatched load instructions
system.switch_cpus1.iew.iewDispStoreInsts      7900786                       # Number of dispatched store instructions
system.switch_cpus1.iew.iewDispNonSpecInsts        17151                       # Number of dispatched non-speculative instructions
system.switch_cpus1.iew.iewIQFullEvents        235211                       # Number of times the IQ has become full, causing a stall
system.switch_cpus1.iew.iewLSQFullEvents        12464                       # Number of times the LSQ has become full, causing a stall
system.switch_cpus1.iew.memOrderViolationEvents          704                       # Number of memory order violations
system.switch_cpus1.iew.predictedTakenIncorrect      1152493                       # Number of branches that were predicted taken incorrectly
system.switch_cpus1.iew.predictedNotTakenIncorrect      1073811                       # Number of branches that were predicted not taken incorrectly
system.switch_cpus1.iew.branchMispredicts      2226304                       # Number of branch mispredicts detected at execute
system.switch_cpus1.iew.iewExecutedInsts    135883076                       # Number of executed instructions
system.switch_cpus1.iew.iewExecLoadInsts     13597210                       # Number of load instructions executed
system.switch_cpus1.iew.iewExecSquashedInsts      2609383                       # Number of squashed instructions skipped in execute
system.switch_cpus1.iew.exec_swp                    0                       # number of swp insts executed
system.switch_cpus1.iew.exec_nop                    0                       # number of nop insts executed
system.switch_cpus1.iew.exec_refs            21455367                       # number of memory reference insts executed
system.switch_cpus1.iew.exec_branches        19398383                       # Number of branches executed
system.switch_cpus1.iew.exec_stores           7858157                       # Number of stores executed
system.switch_cpus1.iew.exec_rate            0.538685                       # Inst execution rate
system.switch_cpus1.iew.wb_sent             134651009                       # cumulative count of insts sent to commit
system.switch_cpus1.iew.wb_count            134648502                       # cumulative count of insts written-back
system.switch_cpus1.iew.wb_producers         79987872                       # num instructions producing a value
system.switch_cpus1.iew.wb_consumers        215498822                       # num instructions consuming a value
system.switch_cpus1.iew.wb_penalized                0                       # number of instrctions required to write to 'other' IQ
system.switch_cpus1.iew.wb_rate              0.533790                       # insts written-back per cycle
system.switch_cpus1.iew.wb_fanout            0.371175                       # average fanout of values written-back
system.switch_cpus1.iew.wb_penalized_rate            0                       # fraction of instructions written-back that wrote to 'other' IQ
system.switch_cpus1.commit.commitCommittedInsts    100893906                       # The number of committed instructions
system.switch_cpus1.commit.commitCommittedOps    123567772                       # The number of committed instructions
system.switch_cpus1.commit.commitSquashedInsts     22334494                       # The number of squashed insts skipped by commit
system.switch_cpus1.commit.commitNonSpecStalls        32472                       # The number of times commit has been forced to stall to communicate backwards
system.switch_cpus1.commit.branchMispredicts      1952536                       # The number of times a branch was mispredicted
system.switch_cpus1.commit.committed_per_cycle::samples    229616932                       # Number of insts commited each cycle
system.switch_cpus1.commit.committed_per_cycle::mean     0.538147                       # Number of insts commited each cycle
system.switch_cpus1.commit.committed_per_cycle::stdev     1.391219                       # Number of insts commited each cycle
system.switch_cpus1.commit.committed_per_cycle::underflows            0      0.00%      0.00% # Number of insts commited each cycle
system.switch_cpus1.commit.committed_per_cycle::0    179379111     78.12%     78.12% # Number of insts commited each cycle
system.switch_cpus1.commit.committed_per_cycle::1     23546835     10.25%     88.38% # Number of insts commited each cycle
system.switch_cpus1.commit.committed_per_cycle::2     10923736      4.76%     93.13% # Number of insts commited each cycle
system.switch_cpus1.commit.committed_per_cycle::3      4865357      2.12%     95.25% # Number of insts commited each cycle
system.switch_cpus1.commit.committed_per_cycle::4      3690429      1.61%     96.86% # Number of insts commited each cycle
system.switch_cpus1.commit.committed_per_cycle::5      1559717      0.68%     97.54% # Number of insts commited each cycle
system.switch_cpus1.commit.committed_per_cycle::6      1545249      0.67%     98.21% # Number of insts commited each cycle
system.switch_cpus1.commit.committed_per_cycle::7      1106385      0.48%     98.69% # Number of insts commited each cycle
system.switch_cpus1.commit.committed_per_cycle::8      3000113      1.31%    100.00% # Number of insts commited each cycle
system.switch_cpus1.commit.committed_per_cycle::overflows            0      0.00%    100.00% # Number of insts commited each cycle
system.switch_cpus1.commit.committed_per_cycle::min_value            0                       # Number of insts commited each cycle
system.switch_cpus1.commit.committed_per_cycle::max_value            8                       # Number of insts commited each cycle
system.switch_cpus1.commit.committed_per_cycle::total    229616932                       # Number of insts commited each cycle
system.switch_cpus1.commit.committedInsts    100893906                       # Number of instructions committed
[...]
system.cpu2.icache.ReadReq_miss_latency::total      3590662                       # number of ReadReq miss cycles
system.cpu2.icache.demand_miss_latency::switch_cpus2.inst      3590662                       # number of demand (read+write) miss cycles
system.cpu2.icache.demand_miss_latency::total      3590662                       # number of demand (read+write) miss cycles
system.cpu2.icache.overall_miss_latency::switch_cpus2.inst      3590662                       # number of overall miss cycles
system.cpu2.icache.overall_miss_latency::total      3590662                       # number of overall miss cycles
system.cpu2.icache.ReadReq_accesses::switch_cpus2.inst     12203787                       # number of ReadReq accesses(hits+misses)
system.cpu2.icache.ReadReq_accesses::total     12203787                       # number of ReadReq accesses(hits+misses)
system.cpu2.icache.demand_accesses::switch_cpus2.inst     12203787                       # number of demand (read+write) accesses
system.cpu2.icache.demand_accesses::total     12203787                       # number of demand (read+write) accesses
system.cpu2.icache.overall_accesses::switch_cpus2.inst     12203787                       # number of overall (read+write) accesses
system.cpu2.icache.overall_accesses::total     12203787                       # number of overall (read+write) accesses
system.cpu2.icache.ReadReq_miss_rate::switch_cpus2.inst     0.000001                       # miss rate for ReadReq accesses
system.cpu2.icache.ReadReq_miss_rate::total     0.000001                       # miss rate for ReadReq accesses
system.cpu2.icache.demand_miss_rate::switch_cpus2.inst     0.000001                       # miss rate for demand accesses
system.cpu2.icache.demand_miss_rate::total     0.000001                       # miss rate for demand accesses
system.cpu2.icache.overall_miss_rate::switch_cpus2.inst     0.000001                       # miss rate for overall accesses
system.cpu2.icache.overall_miss_rate::total     0.000001                       # miss rate for overall accesses
system.cpu2.icache.ReadReq_avg_miss_latency::switch_cpus2.inst 224416.375000                       # average ReadReq miss latency
system.cpu2.icache.ReadReq_avg_miss_latency::total 224416.375000                       # average ReadReq miss latency
system.cpu2.icache.demand_avg_miss_latency::switch_cpus2.inst 224416.375000                       # average overall miss latency
system.cpu2.icache.demand_avg_miss_latency::total 224416.375000                       # average overall miss latency
system.cpu2.icache.overall_avg_miss_latency::switch_cpus2.inst 224416.375000                       # average overall miss latency
system.cpu2.icache.overall_avg_miss_latency::total 224416.375000                       # average overall miss latency
system.cpu2.icache.blocked_cycles::no_mshrs            0                       # number of cycles access was blocked
system.cpu2.icache.blocked_cycles::no_targets            0                       # number of cycles access was blocked
system.cpu2.icache.blocked::no_mshrs                0                       # number of cycles access was blocked
system.cpu2.icache.blocked::no_targets              0                       # number of cycles access was blocked
system.cpu2.icache.avg_blocked_cycles::no_mshrs          nan                       # average number of cycles each access was blocked
system.cpu2.icache.avg_blocked_cycles::no_targets          nan                       # average number of cycles each access was blocked
system.cpu2.icache.fast_writes                      0                       # number of fast writes performed
system.cpu2.icache.cache_copies                     0                       # number of cache copies performed
system.cpu2.icache.ReadReq_mshr_hits::switch_cpus2.inst            2                       # number of ReadReq MSHR hits
system.cpu2.icache.ReadReq_mshr_hits::total            2                       # number of ReadReq MSHR hits
system.cpu2.icache.demand_mshr_hits::switch_cpus2.inst            2                       # number of demand (read+write) MSHR hits
system.cpu2.icache.demand_mshr_hits::total            2                       # number of demand (read+write) MSHR hits
system.cpu2.icache.overall_mshr_hits::switch_cpus2.inst            2                       # number of overall MSHR hits
system.cpu2.icache.overall_mshr_hits::total            2                       # number of overall MSHR hits
system.cpu2.icache.ReadReq_mshr_misses::switch_cpus2.inst           14                       # number of ReadReq MSHR misses
system.cpu2.icache.ReadReq_mshr_misses::total           14                       # number of ReadReq MSHR misses
system.cpu2.icache.demand_mshr_misses::switch_cpus2.inst           14                       # number of demand (read+write) MSHR misses
system.cpu2.icache.demand_mshr_misses::total           14                       # number of demand (read+write) MSHR misses
system.cpu2.icache.overall_mshr_misses::switch_cpus2.inst           14                       # number of overall MSHR misses
system.cpu2.icache.overall_mshr_misses::total           14                       # number of overall MSHR misses
system.cpu2.icache.ReadReq_mshr_miss_latency::switch_cpus2.inst      3059444                       # number of ReadReq MSHR miss cycles
system.cpu2.icache.ReadReq_mshr_miss_latency::total      3059444                       # number of ReadReq MSHR miss cycles
system.cpu2.icache.demand_mshr_miss_latency::switch_cpus2.inst      3059444                       # number of demand (read+write) MSHR miss cycles
system.cpu2.icache.demand_mshr_miss_latency::total      3059444                       # number of demand (read+write) MSHR miss cycles
system.cpu2.icache.overall_mshr_miss_latency::switch_cpus2.inst      3059444                       # number of overall MSHR miss cycles
system.cpu2.icache.overall_mshr_miss_latency::total      3059444                       # number of overall MSHR miss cycles
system.cpu2.icache.ReadReq_mshr_miss_rate::switch_cpus2.inst     0.000001                       # mshr miss rate for ReadReq accesses
system.cpu2.icache.ReadReq_mshr_miss_rate::total     0.000001                       # mshr miss rate for ReadReq accesses
system.cpu2.icache.demand_mshr_miss_rate::switch_cpus2.inst     0.000001                       # mshr miss rate for demand accesses
system.cpu2.icache.demand_mshr_miss_rate::total     0.000001                       # mshr miss rate for demand accesses
system.cpu2.icache.overall_mshr_miss_rate::switch_cpus2.inst     0.000001                       # mshr miss rate for overall accesses
system.cpu2.icache.overall_mshr_miss_rate::total     0.000001                       # mshr miss rate for overall accesses
system.cpu2.icache.ReadReq_avg_mshr_miss_latency::switch_cpus2.inst 218531.714286                       # average ReadReq mshr miss latency
system.cpu2.icache.ReadReq_avg_mshr_miss_latency::total 218531.714286                       # average ReadReq mshr miss latency
system.cpu2.icache.demand_avg_mshr_miss_latency::switch_cpus2.inst 218531.714286                       # average overall mshr miss latency
system.cpu2.icache.demand_avg_mshr_miss_latency::total 218531.714286                       # average overall mshr miss latency
system.cpu2.icache.overall_avg_mshr_miss_latency::switch_cpus2.inst 218531.714286                       # average overall mshr miss latency
system.cpu2.icache.overall_avg_mshr_miss_latency::total 218531.714286                       # average overall mshr miss latency
system.cpu2.icache.no_allocate_misses               0                       # Number of misses that were no-allocate
system.cpu2.dcache.replacements                 41358                       # number of replacements
system.cpu2.dcache.tagsinuse                      256                       # Cycle average of tags in use
system.cpu2.dcache.total_refs               169035262                       # Total number of references to valid blocks.
system.cpu2.dcache.sampled_refs                 41614                       # Sample count of references to valid blocks.
system.cpu2.dcache.avg_refs               4061.980632                       # Average number of references to valid blocks.
system.cpu2.dcache.warmup_cycle                     0                       # Cycle when the warmup percentage was hit.
system.cpu2.dcache.occ_blocks::switch_cpus2.data   232.723265                       # Average occupied blocks per requestor
system.cpu2.dcache.occ_blocks::cpu2.data    23.276735                       # Average occupied blocks per requestor
system.cpu2.dcache.occ_percent::switch_cpus2.data     0.909075                       # Average percentage of cache occupancy
system.cpu2.dcache.occ_percent::cpu2.data     0.090925                       # Average percentage of cache occupancy
system.cpu2.dcache.occ_percent::total               1                       # Average percentage of cache occupancy
system.cpu2.dcache.ReadReq_hits::switch_cpus2.data      9830886                       # number of ReadReq hits
system.cpu2.dcache.ReadReq_hits::total        9830886                       # number of ReadReq hits
system.cpu2.dcache.WriteReq_hits::switch_cpus2.data      7483399                       # number of WriteReq hits
system.cpu2.dcache.WriteReq_hits::total       7483399                       # number of WriteReq hits
system.cpu2.dcache.LoadLockedReq_hits::switch_cpus2.data        17922                       # number of LoadLockedReq hits
system.cpu2.dcache.LoadLockedReq_hits::total        17922                       # number of LoadLockedReq hits
system.cpu2.dcache.StoreCondReq_hits::switch_cpus2.data        17922                       # number of StoreCondReq hits
system.cpu2.dcache.StoreCondReq_hits::total        17922                       # number of StoreCondReq hits
system.cpu2.dcache.demand_hits::switch_cpus2.data     17314285                       # number of demand (read+write) hits
system.cpu2.dcache.demand_hits::total        17314285                       # number of demand (read+write) hits
system.cpu2.dcache.overall_hits::switch_cpus2.data     17314285                       # number of overall hits
system.cpu2.dcache.overall_hits::total       17314285                       # number of overall hits
system.cpu2.dcache.ReadReq_misses::switch_cpus2.data       124399                       # number of ReadReq misses
system.cpu2.dcache.ReadReq_misses::total       124399                       # number of ReadReq misses
system.cpu2.dcache.demand_misses::switch_cpus2.data       124399                       # number of demand (read+write) misses
system.cpu2.dcache.demand_misses::total        124399                       # number of demand (read+write) misses
system.cpu2.dcache.overall_misses::switch_cpus2.data       124399                       # number of overall misses
system.cpu2.dcache.overall_misses::total       124399                       # number of overall misses
system.cpu2.dcache.ReadReq_miss_latency::switch_cpus2.data  13448626295                       # number of ReadReq miss cycles
system.cpu2.dcache.ReadReq_miss_latency::total  13448626295                       # number of ReadReq miss cycles
system.cpu2.dcache.demand_miss_latency::switch_cpus2.data  13448626295                       # number of demand (read+write) miss cycles
system.cpu2.dcache.demand_miss_latency::total  13448626295                       # number of demand (read+write) miss cycles
system.cpu2.dcache.overall_miss_latency::switch_cpus2.data  13448626295                       # number of overall miss cycles
system.cpu2.dcache.overall_miss_latency::total  13448626295                       # number of overall miss cycles
system.cpu2.dcache.ReadReq_accesses::switch_cpus2.data      9955285                       # number of ReadReq accesses(hits+misses)
system.cpu2.dcache.ReadReq_accesses::total      9955285                       # number of ReadReq accesses(hits+misses)
system.cpu2.dcache.WriteReq_accesses::switch_cpus2.data      7483399                       # number of WriteReq accesses(hits+misses)
system.cpu2.dcache.WriteReq_accesses::total      7483399                       # number of WriteReq accesses(hits+misses)
system.cpu2.dcache.LoadLockedReq_accesses::switch_cpus2.data        17922                       # number of LoadLockedReq accesses(hits+misses)
system.cpu2.dcache.LoadLockedReq_accesses::total        17922                       # number of LoadLockedReq accesses(hits+misses)
system.cpu2.dcache.StoreCondReq_accesses::switch_cpus2.data        17922                       # number of StoreCondReq accesses(hits+misses)
system.cpu2.dcache.StoreCondReq_accesses::total        17922                       # number of StoreCondReq accesses(hits+misses)
system.cpu2.dcache.demand_accesses::switch_cpus2.data     17438684                       # number of demand (read+write) accesses
system.cpu2.dcache.demand_accesses::total     17438684                       # number of demand (read+write) accesses
system.cpu2.dcache.overall_accesses::switch_cpus2.data     17438684                       # number of overall (read+write) accesses
system.cpu2.dcache.overall_accesses::total     17438684                       # number of overall (read+write) accesses
system.cpu2.dcache.ReadReq_miss_rate::switch_cpus2.data     0.012496                       # miss rate for ReadReq accesses
system.cpu2.dcache.ReadReq_miss_rate::total     0.012496                       # miss rate for ReadReq accesses
system.cpu2.dcache.demand_miss_rate::switch_cpus2.data     0.007134                       # miss rate for demand accesses
system.cpu2.dcache.demand_miss_rate::total     0.007134                       # miss rate for demand accesses
system.cpu2.dcache.overall_miss_rate::switch_cpus2.data     0.007134                       # miss rate for overall accesses
system.cpu2.dcache.overall_miss_rate::total     0.007134                       # miss rate for overall accesses
system.cpu2.dcache.ReadReq_avg_miss_latency::switch_cpus2.data 108108.797458                       # average ReadReq miss latency
system.cpu2.dcache.ReadReq_avg_miss_latency::total 108108.797458                       # average ReadReq miss latency
system.cpu2.dcache.demand_avg_miss_latency::switch_cpus2.data 108108.797458                       # average overall miss latency
system.cpu2.dcache.demand_avg_miss_latency::total 108108.797458                       # average overall miss latency
system.cpu2.dcache.overall_avg_miss_latency::switch_cpus2.data 108108.797458                       # average overall miss latency
system.cpu2.dcache.overall_avg_miss_latency::total 108108.797458                       # average overall miss latency
system.cpu2.dcache.blocked_cycles::no_mshrs            0                       # number of cycles access was blocked
system.cpu2.dcache.blocked_cycles::no_targets            0                       # number of cycles access was blocked
system.cpu2.dcache.blocked::no_mshrs                0                       # number of cycles access was blocked
system.cpu2.dcache.blocked::no_targets              0                       # number of cycles access was blocked
system.cpu2.dcache.avg_blocked_cycles::no_mshrs          nan                       # average number of cycles each access was blocked
system.cpu2.dcache.avg_blocked_cycles::no_targets          nan                       # average number of cycles each access was blocked
system.cpu2.dcache.fast_writes                      0                       # number of fast writes performed
system.cpu2.dcache.cache_copies                     0                       # number of cache copies performed
system.cpu2.dcache.writebacks::writebacks        11155                       # number of writebacks
system.cpu2.dcache.writebacks::total            11155                       # number of writebacks
system.cpu2.dcache.ReadReq_mshr_hits::switch_cpus2.data        83041                       # number of ReadReq MSHR hits
system.cpu2.dcache.ReadReq_mshr_hits::total        83041                       # number of ReadReq MSHR hits
system.cpu2.dcache.demand_mshr_hits::switch_cpus2.data        83041                       # number of demand (read+write) MSHR hits
system.cpu2.dcache.demand_mshr_hits::total        83041                       # number of demand (read+write) MSHR hits
system.cpu2.dcache.overall_mshr_hits::switch_cpus2.data        83041                       # number of overall MSHR hits
system.cpu2.dcache.overall_mshr_hits::total        83041                       # number of overall MSHR hits
system.cpu2.dcache.ReadReq_mshr_misses::switch_cpus2.data        41358                       # number of ReadReq MSHR misses
system.cpu2.dcache.ReadReq_mshr_misses::total        41358                       # number of ReadReq MSHR misses
system.cpu2.dcache.demand_mshr_misses::switch_cpus2.data        41358                       # number of demand (read+write) MSHR misses
system.cpu2.dcache.demand_mshr_misses::total        41358                       # number of demand (read+write) MSHR misses
system.cpu2.dcache.overall_mshr_misses::switch_cpus2.data        41358                       # number of overall MSHR misses
system.cpu2.dcache.overall_mshr_misses::total        41358                       # number of overall MSHR misses
system.cpu2.dcache.ReadReq_mshr_miss_latency::switch_cpus2.data   3445198982                       # number of ReadReq MSHR miss cycles
system.cpu2.dcache.ReadReq_mshr_miss_latency::total   3445198982                       # number of ReadReq MSHR miss cycles
system.cpu2.dcache.demand_mshr_miss_latency::switch_cpus2.data   3445198982                       # number of demand (read+write) MSHR miss cycles
system.cpu2.dcache.demand_mshr_miss_latency::total   3445198982                       # number of demand (read+write) MSHR miss cycles
system.cpu2.dcache.overall_mshr_miss_latency::switch_cpus2.data   3445198982                       # number of overall MSHR miss cycles
system.cpu2.dcache.overall_mshr_miss_latency::total   3445198982                       # number of overall MSHR miss cycles
system.cpu2.dcache.ReadReq_mshr_miss_rate::switch_cpus2.data     0.004154                       # mshr miss rate for ReadReq accesses
system.cpu2.dcache.ReadReq_mshr_miss_rate::total     0.004154                       # mshr miss rate for ReadReq accesses
system.cpu2.dcache.demand_mshr_miss_rate::switch_cpus2.data     0.002372                       # mshr miss rate for demand accesses
system.cpu2.dcache.demand_mshr_miss_rate::total     0.002372                       # mshr miss rate for demand accesses
system.cpu2.dcache.overall_mshr_miss_rate::switch_cpus2.data     0.002372                       # mshr miss rate for overall accesses
system.cpu2.dcache.overall_mshr_miss_rate::total     0.002372                       # mshr miss rate for overall accesses
system.cpu2.dcache.ReadReq_avg_mshr_miss_latency::switch_cpus2.data 83301.875864                       # average ReadReq mshr miss latency
system.cpu2.dcache.ReadReq_avg_mshr_miss_latency::total 83301.875864                       # average ReadReq mshr miss latency
system.cpu2.dcache.demand_avg_mshr_miss_latency::switch_cpus2.data 83301.875864                       # average overall mshr miss latency
system.cpu2.dcache.demand_avg_mshr_miss_latency::total 83301.875864                       # average overall mshr miss latency
system.cpu2.dcache.overall_avg_mshr_miss_latency::switch_cpus2.data 83301.875864                       # average overall mshr miss latency
system.cpu2.dcache.overall_avg_mshr_miss_latency::total 83301.875864                       # average overall mshr miss latency
system.cpu2.dcache.no_allocate_misses               0                       # Number of misses that were no-allocate

---------- End Simulation Statistics   ----------
