
---------- Begin Simulation Statistics ----------
sim_seconds                                  0.032547                       # Number of seconds simulated
sim_ticks                                 32547294105                       # Number of ticks simulated
final_tick                               604050217224                       # Number of ticks from beginning of simulation (restored from checkpoints and never reset)
sim_freq                                 1000000000000                       # Frequency of simulated ticks
host_inst_rate                                 126248                       # Simulator instruction rate (inst/s)
host_op_rate                                   162567                       # Simulator op (including micro ops) rate (op/s)
host_tick_rate                                1188231                       # Simulator tick rate (ticks/s)
host_mem_usage                               16907816                       # Number of bytes of host memory used
host_seconds                                 27391.38                       # Real time elapsed on the host
sim_insts                                  3458094747                       # Number of instructions simulated
sim_ops                                    4452941238                       # Number of ops (including micro ops) simulated
system.physmem.bytes_read::switch_cpus0.inst         2048                       # Number of bytes read from this memory
system.physmem.bytes_read::switch_cpus0.data      1604352                       # Number of bytes read from this memory
system.physmem.bytes_read::switch_cpus1.inst         2688                       # Number of bytes read from this memory
system.physmem.bytes_read::switch_cpus1.data       571392                       # Number of bytes read from this memory
system.physmem.bytes_read::switch_cpus2.inst         1664                       # Number of bytes read from this memory
system.physmem.bytes_read::switch_cpus2.data       965888                       # Number of bytes read from this memory
system.physmem.bytes_read::total              3148032                       # Number of bytes read from this memory
system.physmem.bytes_inst_read::switch_cpus0.inst         2048                       # Number of instructions bytes read from this memory
system.physmem.bytes_inst_read::switch_cpus1.inst         2688                       # Number of instructions bytes read from this memory
system.physmem.bytes_inst_read::switch_cpus2.inst         1664                       # Number of instructions bytes read from this memory
system.physmem.bytes_inst_read::total            6400                       # Number of instructions bytes read from this memory
system.physmem.bytes_written::writebacks      1275008                       # Number of bytes written to this memory
system.physmem.bytes_written::total           1275008                       # Number of bytes written to this memory
system.physmem.num_reads::switch_cpus0.inst           16                       # Number of read requests responded to by this memory
system.physmem.num_reads::switch_cpus0.data        12534                       # Number of read requests responded to by this memory
system.physmem.num_reads::switch_cpus1.inst           21                       # Number of read requests responded to by this memory
system.physmem.num_reads::switch_cpus1.data         4464                       # Number of read requests responded to by this memory
system.physmem.num_reads::switch_cpus2.inst           13                       # Number of read requests responded to by this memory
system.physmem.num_reads::switch_cpus2.data         7546                       # Number of read requests responded to by this memory
system.physmem.num_reads::total                 24594                       # Number of read requests responded to by this memory
system.physmem.num_writes::writebacks            9961                       # Number of write requests responded to by this memory
system.physmem.num_writes::functional               0                       # Number of write requests responded to by this memory
system.physmem.num_writes::interrupt                0                       # Number of write requests responded to by this memory
system.physmem.num_writes::switch_cpus0.dtb.walker            0                       # Number of write requests responded to by this memory
system.physmem.num_writes::switch_cpus0.itb.walker            0                       # Number of write requests responded to by this memory
system.physmem.num_writes::switch_cpus0.inst            0                       # Number of write requests responded to by this memory
system.physmem.num_writes::switch_cpus0.data            0                       # Number of write requests responded to by this memory
system.physmem.num_writes::switch_cpus1.dtb.walker            0                       # Number of write requests responded to by this memory
system.physmem.num_writes::switch_cpus1.itb.walker            0                       # Number of write requests responded to by this memory
system.physmem.num_writes::switch_cpus1.inst            0                       # Number of write requests responded to by this memory
system.physmem.num_writes::switch_cpus1.data            0                       # Number of write requests responded to by this memory
system.physmem.num_writes::switch_cpus2.dtb.walker            0                       # Number of write requests responded to by this memory
system.physmem.num_writes::switch_cpus2.itb.walker            0                       # Number of write requests responded to by this memory
system.physmem.num_writes::switch_cpus2.inst            0                       # Number of write requests responded to by this memory
system.physmem.num_writes::switch_cpus2.data            0                       # Number of write requests responded to by this memory
system.physmem.num_writes::cpu0.dtb.walker            0                       # Number of write requests responded to by this memory
system.physmem.num_writes::cpu0.itb.walker            0                       # Number of write requests responded to by this memory
system.physmem.num_writes::cpu0.inst                0                       # Number of write requests responded to by this memory
system.physmem.num_writes::cpu0.data                0                       # Number of write requests responded to by this memory
system.physmem.num_writes::cpu1.dtb.walker            0                       # Number of write requests responded to by this memory
system.physmem.num_writes::cpu1.itb.walker            0                       # Number of write requests responded to by this memory
system.physmem.num_writes::cpu1.inst                0                       # Number of write requests responded to by this memory
system.physmem.num_writes::cpu1.data                0                       # Number of write requests responded to by this memory
system.physmem.num_writes::cpu2.dtb.walker            0                       # Number of write requests responded to by this memory
system.physmem.num_writes::cpu2.itb.walker            0                       # Number of write requests responded to by this memory
system.physmem.num_writes::cpu2.inst                0                       # Number of write requests responded to by this memory
system.physmem.num_writes::cpu2.data                0                       # Number of write requests responded to by this memory
system.physmem.num_writes::total                 9961                       # Number of write requests responded to by this memory
system.physmem.bw_read::switch_cpus0.inst        62924                       # Total read bandwidth from this memory (bytes/s)
system.physmem.bw_read::switch_cpus0.data     49292946                       # Total read bandwidth from this memory (bytes/s)
system.physmem.bw_read::switch_cpus1.inst        82588                       # Total read bandwidth from this memory (bytes/s)
system.physmem.bw_read::switch_cpus1.data     17555745                       # Total read bandwidth from this memory (bytes/s)
system.physmem.bw_read::switch_cpus2.inst        51126                       # Total read bandwidth from this memory (bytes/s)
system.physmem.bw_read::switch_cpus2.data     29676446                       # Total read bandwidth from this memory (bytes/s)
system.physmem.bw_read::total                96721773                       # Total read bandwidth from this memory (bytes/s)
system.physmem.bw_inst_read::switch_cpus0.inst        62924                       # Instruction read bandwidth from this memory (bytes/s)
system.physmem.bw_inst_read::switch_cpus1.inst        82588                       # Instruction read bandwidth from this memory (bytes/s)
system.physmem.bw_inst_read::switch_cpus2.inst        51126                       # Instruction read bandwidth from this memory (bytes/s)
system.physmem.bw_inst_read::total             196637                       # Instruction read bandwidth from this memory (bytes/s)
system.physmem.bw_write::writebacks          39174009                       # Write bandwidth from this memory (bytes/s)
system.physmem.bw_write::total               39174009                       # Write bandwidth from this memory (bytes/s)
system.physmem.bw_total::writebacks          39174009                       # Total bandwidth to/from this memory (bytes/s)
system.physmem.bw_total::switch_cpus0.inst        62924                       # Total bandwidth to/from this memory (bytes/s)
system.physmem.bw_total::switch_cpus0.data     49292946                       # Total bandwidth to/from this memory (bytes/s)
system.physmem.bw_total::switch_cpus1.inst        82588                       # Total bandwidth to/from this memory (bytes/s)
system.physmem.bw_total::switch_cpus1.data     17555745                       # Total bandwidth to/from this memory (bytes/s)
system.physmem.bw_total::switch_cpus2.inst        51126                       # Total bandwidth to/from this memory (bytes/s)
system.physmem.bw_total::switch_cpus2.data     29676446                       # Total bandwidth to/from this memory (bytes/s)
system.physmem.bw_total::total              135895782                       # Total bandwidth to/from this memory (bytes/s)
system.switch_cpus0.dtb.inst_hits                   0                       # ITB inst hits
system.switch_cpus0.dtb.inst_misses                 0                       # ITB inst misses
system.switch_cpus0.dtb.read_hits                   0                       # DTB read hits
system.switch_cpus0.dtb.read_misses                 0                       # DTB read misses
system.switch_cpus0.dtb.write_hits                  0                       # DTB write hits
system.switch_cpus0.dtb.write_misses                0                       # DTB write misses
system.switch_cpus0.dtb.flush_tlb                   0                       # Number of times complete TLB was flushed
system.switch_cpus0.dtb.flush_tlb_mva               0                       # Number of times TLB was flushed by MVA
system.switch_cpus0.dtb.flush_tlb_mva_asid            0                       # Number of times TLB was flushed by MVA & ASID
system.switch_cpus0.dtb.flush_tlb_asid              0                       # Number of times TLB was flushed by ASID
system.switch_cpus0.dtb.flush_entries               0                       # Number of entries that have been flushed from TLB
system.switch_cpus0.dtb.align_faults                0                       # Number of TLB faults due to alignment restrictions
system.switch_cpus0.dtb.prefetch_faults             0                       # Number of TLB faults due to prefetch
system.switch_cpus0.dtb.domain_faults               0                       # Number of TLB faults due to domain restrictions
system.switch_cpus0.dtb.perms_faults                0                       # Number of TLB faults due to permissions restrictions
system.switch_cpus0.dtb.read_accesses               0                       # DTB read accesses
system.switch_cpus0.dtb.write_accesses              0                       # DTB write accesses
system.switch_cpus0.dtb.inst_accesses               0                       # ITB inst accesses
system.switch_cpus0.dtb.hits                        0                       # DTB hits
system.switch_cpus0.dtb.misses                      0                       # DTB misses
system.switch_cpus0.dtb.accesses                    0                       # DTB accesses
system.switch_cpus0.itb.inst_hits                   0                       # ITB inst hits
system.switch_cpus0.itb.inst_misses                 0                       # ITB inst misses
system.switch_cpus0.itb.read_hits                   0                       # DTB read hits
system.switch_cpus0.itb.read_misses                 0                       # DTB read misses
system.switch_cpus0.itb.write_hits                  0                       # DTB write hits
system.switch_cpus0.itb.write_misses                0                       # DTB write misses
system.switch_cpus0.itb.flush_tlb                   0                       # Number of times complete TLB was flushed
system.switch_cpus0.itb.flush_tlb_mva               0                       # Number of times TLB was flushed by MVA
system.switch_cpus0.itb.flush_tlb_mva_asid            0                       # Number of times TLB was flushed by MVA & ASID
system.switch_cpus0.itb.flush_tlb_asid              0                       # Number of times TLB was flushed by ASID
system.switch_cpus0.itb.flush_entries               0                       # Number of entries that have been flushed from TLB
system.switch_cpus0.itb.align_faults                0                       # Number of TLB faults due to alignment restrictions
system.switch_cpus0.itb.prefetch_faults             0                       # Number of TLB faults due to prefetch
system.switch_cpus0.itb.domain_faults               0                       # Number of TLB faults due to domain restrictions
system.switch_cpus0.itb.perms_faults                0                       # Number of TLB faults due to permissions restrictions
system.switch_cpus0.itb.read_accesses               0                       # DTB read accesses
system.switch_cpus0.itb.write_accesses              0                       # DTB write accesses
system.switch_cpus0.itb.inst_accesses               0                       # ITB inst accesses
system.switch_cpus0.itb.hits                        0                       # DTB hits
system.switch_cpus0.itb.misses                      0                       # DTB misses
system.switch_cpus0.itb.accesses                    0                       # DTB accesses
system.cpu0.workload.num_syscalls                   0                       # Number of system calls
system.switch_cpus0.numCycles                78051066                       # number of cpu cycles simulated
system.switch_cpus0.numWorkItemsStarted             0                       # number of work items this cpu started
system.switch_cpus0.numWorkItemsCompleted            0                       # number of work items this cpu completed
system.switch_cpus0.BPredUnit.lookups        28422509                       # Number of BP lookups
system.switch_cpus0.BPredUnit.condPredicted     24854238                       # Number of conditional branches predicted
system.switch_cpus0.BPredUnit.condIncorrect      1800863                       # Number of conditional branches incorrect
system.switch_cpus0.BPredUnit.BTBLookups     14209376                       # Number of BTB lookups
system.switch_cpus0.BPredUnit.BTBHits        13672468                       # Number of BTB hits
system.switch_cpus0.BPredUnit.BTBCorrect            0                       # Number of correct BTB predictions (this stat may not work properly.
system.switch_cpus0.BPredUnit.usedRAS         2043920                       # Number of times the RAS was used to get a target.
system.switch_cpus0.BPredUnit.RASInCorrect        56903                       # Number of incorrect RAS predictions.
system.switch_cpus0.fetch.icacheStallCycles     33514783                       # Number of cycles fetch is stalled on an Icache miss
system.switch_cpus0.fetch.Insts             158146429                       # Number of instructions fetch has processed
system.switch_cpus0.fetch.Branches           28422509                       # Number of branches that fetch encountered
system.switch_cpus0.fetch.predictedBranches     15716388                       # Number of branches that fetch has predicted taken
system.switch_cpus0.fetch.Cycles             32557088                       # Number of cycles fetch has run and was not squashing or blocked
system.switch_cpus0.fetch.SquashCycles        8838901                       # Number of cycles fetch has spent squashing
system.switch_cpus0.fetch.BlockedCycles       3769352                       # Number of cycles fetch has spent blocked
system.switch_cpus0.fetch.PendingTrapStallCycles           18                       # Number of stall cycles due to pending traps
system.switch_cpus0.fetch.CacheLines         16520985                       # Number of cache lines fetched
system.switch_cpus0.fetch.IcacheSquashes       714158                       # Number of outstanding Icache misses that were squashed
system.switch_cpus0.fetch.rateDist::samples     76869025                       # Number of instructions fetched each cycle (Total)
system.switch_cpus0.fetch.rateDist::mean     2.368238                       # Number of instructions fetched each cycle (Total)
system.switch_cpus0.fetch.rateDist::stdev     3.172089                       # Number of instructions fetched each cycle (Total)
system.switch_cpus0.fetch.rateDist::underflows            0      0.00%      0.00% # Number of instructions fetched each cycle (Total)
system.switch_cpus0.fetch.rateDist::0        44311937     57.65%     57.65% # Number of instructions fetched each cycle (Total)
system.switch_cpus0.fetch.rateDist::1         1614938      2.10%     59.75% # Number of instructions fetched each cycle (Total)
system.switch_cpus0.fetch.rateDist::2         2951675      3.84%     63.59% # Number of instructions fetched each cycle (Total)
system.switch_cpus0.fetch.rateDist::3         2767709      3.60%     67.19% # Number of instructions fetched each cycle (Total)
system.switch_cpus0.fetch.rateDist::4         4555367      5.93%     73.11% # Number of instructions fetched each cycle (Total)
system.switch_cpus0.fetch.rateDist::5         4746604      6.17%     79.29% # Number of instructions fetched each cycle (Total)
system.switch_cpus0.fetch.rateDist::6         1125107      1.46%     80.75% # Number of instructions fetched each cycle (Total)
system.switch_cpus0.fetch.rateDist::7          847896      1.10%     81.86% # Number of instructions fetched each cycle (Total)
system.switch_cpus0.fetch.rateDist::8        13947792     18.14%    100.00% # Number of instructions fetched each cycle (Total)
system.switch_cpus0.fetch.rateDist::overflows            0      0.00%    100.00% # Number of instructions fetched each cycle (Total)
system.switch_cpus0.fetch.rateDist::min_value            0                       # Number of instructions fetched each cycle (Total)
system.switch_cpus0.fetch.rateDist::max_value            8                       # Number of instructions fetched each cycle (Total)
system.switch_cpus0.fetch.rateDist::total     76869025                       # Number of instructions fetched each cycle (Total)
system.switch_cpus0.fetch.branchRate         0.364153                       # Number of branch fetches per cycle
system.switch_cpus0.fetch.rate               2.026192                       # Number of inst fetches per cycle
system.switch_cpus0.decode.IdleCycles        34565411                       # Number of cycles decode is idle
system.switch_cpus0.decode.BlockedCycles      3644942                       # Number of cycles decode is blocked
system.switch_cpus0.decode.RunCycles         31510157                       # Number of cycles decode is running
system.switch_cpus0.decode.UnblockCycles       125909                       # Number of cycles decode is unblocking
system.switch_cpus0.decode.SquashCycles       7022596                       # Number of cycles decode is squashing
system.switch_cpus0.decode.BranchResolved      3092191                       # Number of times decode resolved a branch
system.switch_cpus0.decode.BranchMispred         5204                       # Number of times decode detected a branch misprediction
system.switch_cpus0.decode.DecodedInsts     176946731                       # Number of instructions handled by decode
system.switch_cpus0.decode.SquashedInsts         1381                       # Number of squashed instructions handled by decode
system.switch_cpus0.rename.SquashCycles       7022596                       # Number of cycles rename is squashing
system.switch_cpus0.rename.IdleCycles        36017768                       # Number of cycles rename is idle
system.switch_cpus0.rename.BlockCycles        1234246                       # Number of cycles rename is blocking
system.switch_cpus0.rename.serializeStallCycles       418727                       # count of cycles rename stalled for serializing inst
system.switch_cpus0.rename.RunCycles         30169604                       # Number of cycles rename is running
system.switch_cpus0.rename.UnblockCycles      2006075                       # Number of cycles rename is unblocking
system.switch_cpus0.rename.RenamedInsts     172290950                       # Number of instructions processed by rename
system.switch_cpus0.rename.ROBFullEvents           28                       # Number of times rename has blocked due to ROB full
system.switch_cpus0.rename.IQFullEvents        690251                       # Number of times rename has blocked due to IQ full
system.switch_cpus0.rename.LSQFullEvents       803454                       # Number of times rename has blocked due to LSQ full
system.switch_cpus0.rename.RenamedOperands    228757861                       # Number of destination operands rename has renamed
system.switch_cpus0.rename.RenameLookups    784199608                       # Number of register rename lookups that rename has made
system.switch_cpus0.rename.int_rename_lookups    784199608                       # Number of integer rename lookups
system.switch_cpus0.rename.CommittedMaps    148896161                       # Number of HB maps that are committed
system.switch_cpus0.rename.UndoneMaps        79861689                       # Number of HB maps that are undone due to squashing
system.switch_cpus0.rename.serializingInsts        20329                       # count of serializing insts renamed
system.switch_cpus0.rename.tempSerializingInsts         9933                       # count of temporary serializing insts renamed
system.switch_cpus0.rename.skidInsts          5377515                       # count of insts added to the skid buffer
system.switch_cpus0.memDep0.insertedLoads     26496536                       # Number of loads inserted to the mem dependence unit.
system.switch_cpus0.memDep0.insertedStores      5760916                       # Number of stores inserted to the mem dependence unit.
system.switch_cpus0.memDep0.conflictingLoads        97618                       # Number of conflicting loads.
system.switch_cpus0.memDep0.conflictingStores      2025311                       # Number of conflicting stores.
system.switch_cpus0.iq.iqInstsAdded         163059848                       # Number of instructions added to the IQ (excludes non-spec)
system.switch_cpus0.iq.iqNonSpecInstsAdded        19855                       # Number of non-speculative instructions added to the IQ
system.switch_cpus0.iq.iqInstsIssued        137645742                       # Number of instructions issued
system.switch_cpus0.iq.iqSquashedInstsIssued       181571                       # Number of squashed instructions issued
system.switch_cpus0.iq.iqSquashedInstsExamined     48902532                       # Number of squashed instructions iterated over during squash; mainly for profiling
system.switch_cpus0.iq.iqSquashedOperandsExamined    134244609                       # Number of squashed operands that are examined and possibly removed from graph
system.switch_cpus0.iq.iqSquashedNonSpecRemoved           11                       # Number of squashed non-spec instructions that were removed
system.switch_cpus0.iq.issued_per_cycle::samples     76869025                       # Number of insts issued each cycle
system.switch_cpus0.iq.issued_per_cycle::mean     1.790653                       # Number of insts issued each cycle
system.switch_cpus0.iq.issued_per_cycle::stdev     1.840349                       # Number of insts issued each cycle
system.switch_cpus0.iq.issued_per_cycle::underflows            0      0.00%      0.00% # Number of insts issued each cycle
system.switch_cpus0.iq.issued_per_cycle::0     26525738     34.51%     34.51% # Number of insts issued each cycle
system.switch_cpus0.iq.issued_per_cycle::1     14331105     18.64%     53.15% # Number of insts issued each cycle
system.switch_cpus0.iq.issued_per_cycle::2     12579800     16.37%     69.52% # Number of insts issued each cycle
system.switch_cpus0.iq.issued_per_cycle::3      7666650      9.97%     79.49% # Number of insts issued each cycle
system.switch_cpus0.iq.issued_per_cycle::4      8016094     10.43%     89.92% # Number of insts issued each cycle
system.switch_cpus0.iq.issued_per_cycle::5      4728348      6.15%     96.07% # Number of insts issued each cycle
system.switch_cpus0.iq.issued_per_cycle::6      2081836      2.71%     98.78% # Number of insts issued each cycle
system.switch_cpus0.iq.issued_per_cycle::7       557677      0.73%     99.50% # Number of insts issued each cycle
system.switch_cpus0.iq.issued_per_cycle::8       381777      0.50%    100.00% # Number of insts issued each cycle
system.switch_cpus0.iq.issued_per_cycle::overflows            0      0.00%    100.00% # Number of insts issued each cycle
system.switch_cpus0.iq.issued_per_cycle::min_value            0                       # Number of insts issued each cycle
system.switch_cpus0.iq.issued_per_cycle::max_value            8                       # Number of insts issued each cycle
system.switch_cpus0.iq.issued_per_cycle::total     76869025                       # Number of insts issued each cycle
system.switch_cpus0.iq.fu_full::No_OpClass            0      0.00%      0.00% # attempts to use FU when none available
system.switch_cpus0.iq.fu_full::IntAlu         541018     66.30%     66.30% # attempts to use FU when none available
system.switch_cpus0.iq.fu_full::IntMult             0      0.00%     66.30% # attempts to use FU when none available
system.switch_cpus0.iq.fu_full::IntDiv              0      0.00%     66.30% # attempts to use FU when none available
system.switch_cpus0.iq.fu_full::FloatAdd            0      0.00%     66.30% # attempts to use FU when none available
system.switch_cpus0.iq.fu_full::FloatCmp            0      0.00%     66.30% # attempts to use FU when none available
system.switch_cpus0.iq.fu_full::FloatCvt            0      0.00%     66.30% # attempts to use FU when none available
system.switch_cpus0.iq.fu_full::FloatMult            0      0.00%     66.30% # attempts to use FU when none available
system.switch_cpus0.iq.fu_full::FloatDiv            0      0.00%     66.30% # attempts to use FU when none available
system.switch_cpus0.iq.fu_full::FloatSqrt            0      0.00%     66.30% # attempts to use FU when none available
system.switch_cpus0.iq.fu_full::SimdAdd             0      0.00%     66.30% # attempts to use FU when none available
system.switch_cpus0.iq.fu_full::SimdAddAcc            0      0.00%     66.30% # attempts to use FU when none available
system.switch_cpus0.iq.fu_full::SimdAlu             0      0.00%     66.30% # attempts to use FU when none available
system.switch_cpus0.iq.fu_full::SimdCmp             0      0.00%     66.30% # attempts to use FU when none available
system.switch_cpus0.iq.fu_full::SimdCvt             0      0.00%     66.30% # attempts to use FU when none available
system.switch_cpus0.iq.fu_full::SimdMisc            0      0.00%     66.30% # attempts to use FU when none available
system.switch_cpus0.iq.fu_full::SimdMult            0      0.00%     66.30% # attempts to use FU when none available
system.switch_cpus0.iq.fu_full::SimdMultAcc            0      0.00%     66.30% # attempts to use FU when none available
system.switch_cpus0.iq.fu_full::SimdShift            0      0.00%     66.30% # attempts to use FU when none available
system.switch_cpus0.iq.fu_full::SimdShiftAcc            0      0.00%     66.30% # attempts to use FU when none available
system.switch_cpus0.iq.fu_full::SimdSqrt            0      0.00%     66.30% # attempts to use FU when none available
system.switch_cpus0.iq.fu_full::SimdFloatAdd            0      0.00%     66.30% # attempts to use FU when none available
system.switch_cpus0.iq.fu_full::SimdFloatAlu            0      0.00%     66.30% # attempts to use FU when none available
system.switch_cpus0.iq.fu_full::SimdFloatCmp            0      0.00%     66.30% # attempts to use FU when none available
system.switch_cpus0.iq.fu_full::SimdFloatCvt            0      0.00%     66.30% # attempts to use FU when none available
system.switch_cpus0.iq.fu_full::SimdFloatDiv            0      0.00%     66.30% # attempts to use FU when none available
system.switch_cpus0.iq.fu_full::SimdFloatMisc            0      0.00%     66.30% # attempts to use FU when none available
system.switch_cpus0.iq.fu_full::SimdFloatMult            0      0.00%     66.30% # attempts to use FU when none available
system.switch_cpus0.iq.fu_full::SimdFloatMultAcc            0      0.00%     66.30% # attempts to use FU when none available
system.switch_cpus0.iq.fu_full::SimdFloatSqrt            0      0.00%     66.30% # attempts to use FU when none available
system.switch_cpus0.iq.fu_full::MemRead        174575     21.39%     87.70% # attempts to use FU when none available
system.switch_cpus0.iq.fu_full::MemWrite       100393     12.30%    100.00% # attempts to use FU when none available
system.switch_cpus0.iq.fu_full::IprAccess            0      0.00%    100.00% # attempts to use FU when none available
system.switch_cpus0.iq.fu_full::InstPrefetch            0      0.00%    100.00% # attempts to use FU when none available
system.switch_cpus0.iq.FU_type_0::No_OpClass            0      0.00%      0.00% # Type of FU issued
system.switch_cpus0.iq.FU_type_0::IntAlu    107971824     78.44%     78.44% # Type of FU issued
system.switch_cpus0.iq.FU_type_0::IntMult      1085552      0.79%     79.23% # Type of FU issued
system.switch_cpus0.iq.FU_type_0::IntDiv            0      0.00%     79.23% # Type of FU issued
system.switch_cpus0.iq.FU_type_0::FloatAdd            0      0.00%     79.23% # Type of FU issued
system.switch_cpus0.iq.FU_type_0::FloatCmp            0      0.00%     79.23% # Type of FU issued
system.switch_cpus0.iq.FU_type_0::FloatCvt            0      0.00%     79.23% # Type of FU issued
system.switch_cpus0.iq.FU_type_0::FloatMult            0      0.00%     79.23% # Type of FU issued
system.switch_cpus0.iq.FU_type_0::FloatDiv            0      0.00%     79.23% # Type of FU issued
system.switch_cpus0.iq.FU_type_0::FloatSqrt            0      0.00%     79.23% # Type of FU issued
system.switch_cpus0.iq.FU_type_0::SimdAdd            0      0.00%     79.23% # Type of FU issued
system.switch_cpus0.iq.FU_type_0::SimdAddAcc            0      0.00%     79.23% # Type of FU issued
system.switch_cpus0.iq.FU_type_0::SimdAlu            0      0.00%     79.23% # Type of FU issued
system.switch_cpus0.iq.FU_type_0::SimdCmp            0      0.00%     79.23% # Type of FU issued
system.switch_cpus0.iq.FU_type_0::SimdCvt            0      0.00%     79.23% # Type of FU issued
system.switch_cpus0.iq.FU_type_0::SimdMisc            0      0.00%     79.23% # Type of FU issued
system.switch_cpus0.iq.FU_type_0::SimdMult            0      0.00%     79.23% # Type of FU issued
system.switch_cpus0.iq.FU_type_0::SimdMultAcc            0      0.00%     79.23% # Type of FU issued
system.switch_cpus0.iq.FU_type_0::SimdShift            0      0.00%     79.23% # Type of FU issued
system.switch_cpus0.iq.FU_type_0::SimdShiftAcc            0      0.00%     79.23% # Type of FU issued
system.switch_cpus0.iq.FU_type_0::SimdSqrt            0      0.00%     79.23% # Type of FU issued
system.switch_cpus0.iq.FU_type_0::SimdFloatAdd            0      0.00%     79.23% # Type of FU issued
system.switch_cpus0.iq.FU_type_0::SimdFloatAlu            0      0.00%     79.23% # Type of FU issued
system.switch_cpus0.iq.FU_type_0::SimdFloatCmp            0      0.00%     79.23% # Type of FU issued
system.switch_cpus0.iq.FU_type_0::SimdFloatCvt            0      0.00%     79.23% # Type of FU issued
system.switch_cpus0.iq.FU_type_0::SimdFloatDiv            0      0.00%     79.23% # Type of FU issued
system.switch_cpus0.iq.FU_type_0::SimdFloatMisc         9921      0.01%     79.24% # Type of FU issued
system.switch_cpus0.iq.FU_type_0::SimdFloatMult            0      0.00%     79.24% # Type of FU issued
system.switch_cpus0.iq.FU_type_0::SimdFloatMultAcc            0      0.00%     79.24% # Type of FU issued
system.switch_cpus0.iq.FU_type_0::SimdFloatSqrt            0      0.00%     79.24% # Type of FU issued
system.switch_cpus0.iq.FU_type_0::MemRead     23690641     17.21%     96.45% # Type of FU issued
system.switch_cpus0.iq.FU_type_0::MemWrite      4887804      3.55%    100.00% # Type of FU issued
system.switch_cpus0.iq.FU_type_0::IprAccess            0      0.00%    100.00% # Type of FU issued
system.switch_cpus0.iq.FU_type_0::InstPrefetch            0      0.00%    100.00% # Type of FU issued
system.switch_cpus0.iq.FU_type_0::total     137645742                       # Type of FU issued
system.switch_cpus0.iq.rate                  1.763534                       # Inst issue rate
system.switch_cpus0.iq.fu_busy_cnt             815986                       # FU busy when requested
system.switch_cpus0.iq.fu_busy_rate          0.005928                       # FU busy rate (busy events/executed inst)
system.switch_cpus0.iq.int_inst_queue_reads    353158066                       # Number of integer instruction queue reads
system.switch_cpus0.iq.int_inst_queue_writes    211982660                       # Number of integer instruction queue writes
system.switch_cpus0.iq.int_inst_queue_wakeup_accesses    133156530                       # Number of integer instruction queue wakeup accesses
system.switch_cpus0.iq.fp_inst_queue_reads            0                       # Number of floating instruction queue reads
system.switch_cpus0.iq.fp_inst_queue_writes            0                       # Number of floating instruction queue writes
system.switch_cpus0.iq.fp_inst_queue_wakeup_accesses            0                       # Number of floating instruction queue wakeup accesses
system.switch_cpus0.iq.int_alu_accesses     138461728                       # Number of integer alu accesses
system.switch_cpus0.iq.fp_alu_accesses              0                       # Number of floating point alu accesses
system.switch_cpus0.iew.lsq.thread0.forwLoads       340090                       # Number of loads that had data forwarded from stores
system.switch_cpus0.iew.lsq.thread0.invAddrLoads            0                       # Number of loads ignored due to an invalid address
system.switch_cpus0.iew.lsq.thread0.squashedLoads      7566465                       # Number of loads squashed
system.switch_cpus0.iew.lsq.thread0.ignoredResponses          809                       # Number of memory responses ignored because the instruction is squashed
system.switch_cpus0.iew.lsq.thread0.memOrderViolation          425                       # Number of memory ordering violations
system.switch_cpus0.iew.lsq.thread0.squashedStores      1407561                       # Number of stores squashed
system.switch_cpus0.iew.lsq.thread0.invAddrSwpfs            0                       # Number of software prefetches ignored due to an invalid address
system.switch_cpus0.iew.lsq.thread0.blockedLoads            0                       # Number of blocked loads due to partial load-store forwarding
system.switch_cpus0.iew.lsq.thread0.rescheduledLoads            0                       # Number of loads that were rescheduled
system.switch_cpus0.iew.lsq.thread0.cacheBlocked            0                       # Number of times an access to memory failed due to the cache being blocked
system.switch_cpus0.iew.iewIdleCycles               0                       # Number of cycles IEW is idle
system.switch_cpus0.iew.iewSquashCycles       7022596                       # Number of cycles IEW is squashing
system.switch_cpus0.iew.iewBlockCycles         660690                       # Number of cycles IEW is blocking
system.switch_cpus0.iew.iewUnblockCycles        56958                       # Number of cycles IEW is unblocking
system.switch_cpus0.iew.iewDispatchedInsts    163079706                       # Number of instructions dispatched to IQ
system.switch_cpus0.iew.iewDispSquashedInsts       191645                       # Number of squashed instructions skipped by dispatch
system.switch_cpus0.iew.iewDispLoadInsts     26496536                       # Number of dispatched load instructions
system.switch_cpus0.iew.iewDispStoreInsts      5760916                       # Number of dispatched store instructions
system.switch_cpus0.iew.iewDispNonSpecInsts         9933                       # Number of dispatched non-speculative instructions
system.switch_cpus0.iew.iewIQFullEvents         30607                       # Number of times the IQ has become full, causing a stall
system.switch_cpus0.iew.iewLSQFullEvents          209                       # Number of times the LSQ has become full, causing a stall
system.switch_cpus0.iew.memOrderViolationEvents          425                       # Number of memory order violations
system.switch_cpus0.iew.predictedTakenIncorrect       958073                       # Number of branches that were predicted taken incorrectly
system.switch_cpus0.iew.predictedNotTakenIncorrect      1060948                       # Number of branches that were predicted not taken incorrectly
system.switch_cpus0.iew.branchMispredicts      2019021                       # Number of branch mispredicts detected at execute
system.switch_cpus0.iew.iewExecutedInsts    135076018                       # Number of executed instructions
system.switch_cpus0.iew.iewExecLoadInsts     22770409                       # Number of load instructions executed
system.switch_cpus0.iew.iewExecSquashedInsts      2569724                       # Number of squashed instructions skipped in execute
system.switch_cpus0.iew.exec_swp                    0                       # number of swp insts executed
system.switch_cpus0.iew.exec_nop                    3                       # number of nop insts executed
system.switch_cpus0.iew.exec_refs            27540489                       # number of memory reference insts executed
system.switch_cpus0.iew.exec_branches        20415060                       # Number of branches executed
system.switch_cpus0.iew.exec_stores           4770080                       # Number of stores executed
system.switch_cpus0.iew.exec_rate            1.730611                       # Inst execution rate
system.switch_cpus0.iew.wb_sent             133305318                       # cumulative count of insts sent to commit
system.switch_cpus0.iew.wb_count            133156530                       # cumulative count of insts written-back
system.switch_cpus0.iew.wb_producers         81826607                       # num instructions producing a value
system.switch_cpus0.iew.wb_consumers        199686034                       # num instructions consuming a value
system.switch_cpus0.iew.wb_penalized                0                       # number of instrctions required to write to 'other' IQ
system.switch_cpus0.iew.wb_rate              1.706018                       # insts written-back per cycle
system.switch_cpus0.iew.wb_fanout            0.409776                       # average fanout of values written-back
system.switch_cpus0.iew.wb_penalized_rate            0                       # fraction of instructions written-back that wrote to 'other' IQ
system.switch_cpus0.commit.commitCommittedInsts    100000002                       # The number of committed instructions
system.switch_cpus0.commit.commitCommittedOps    113611585                       # The number of committed instructions
system.switch_cpus0.commit.commitSquashedInsts     49468737                       # The number of squashed insts skipped by commit
system.switch_cpus0.commit.commitNonSpecStalls        19844                       # The number of times commit has been forced to stall to communicate backwards
system.switch_cpus0.commit.branchMispredicts      1805615                       # The number of times a branch was mispredicted
system.switch_cpus0.commit.committed_per_cycle::samples     69846429                       # Number of insts commited each cycle
system.switch_cpus0.commit.committed_per_cycle::mean     1.626591                       # Number of insts commited each cycle
system.switch_cpus0.commit.committed_per_cycle::stdev     2.320198                       # Number of insts commited each cycle
system.switch_cpus0.commit.committed_per_cycle::underflows            0      0.00%      0.00% # Number of insts commited each cycle
system.switch_cpus0.commit.committed_per_cycle::0     32036650     45.87%     45.87% # Number of insts commited each cycle
system.switch_cpus0.commit.committed_per_cycle::1     14843652     21.25%     67.12% # Number of insts commited each cycle
system.switch_cpus0.commit.committed_per_cycle::2      8303536     11.89%     79.01% # Number of insts commited each cycle
system.switch_cpus0.commit.committed_per_cycle::3      2815161      4.03%     83.04% # Number of insts commited each cycle
system.switch_cpus0.commit.committed_per_cycle::4      2695600      3.86%     86.90% # Number of insts commited each cycle
system.switch_cpus0.commit.committed_per_cycle::5      1128117      1.62%     88.51% # Number of insts commited each cycle
system.switch_cpus0.commit.committed_per_cycle::6      3010255      4.31%     92.82% # Number of insts commited each cycle
system.switch_cpus0.commit.committed_per_cycle::7       876801      1.26%     94.08% # Number of insts commited each cycle
system.switch_cpus0.commit.committed_per_cycle::8      4136657      5.92%    100.00% # Number of insts commited each cycle
system.switch_cpus0.commit.committed_per_cycle::overflows            0      0.00%    100.00% # Number of insts commited each cycle
system.switch_cpus0.commit.committed_per_cycle::min_value            0                       # Number of insts commited each cycle
system.switch_cpus0.commit.committed_per_cycle::max_value            8                       # Number of insts commited each cycle
system.switch_cpus0.commit.committed_per_cycle::total     69846429                       # Number of insts commited each cycle
system.switch_cpus0.commit.committedInsts    100000002                       # Number of instructions committed
system.switch_cpus0.commit.committedOps     113611585                       # Number of ops (including micro ops) committed
system.switch_cpus0.commit.swp_count                0                       # Number of s/w prefetches committed
system.switch_cpus0.commit.refs              23283426                       # Number of memory references committed
system.switch_cpus0.commit.loads             18930071                       # Number of loads committed
system.switch_cpus0.commit.membars               9922                       # Number of memory barriers committed
system.switch_cpus0.commit.branches          17789105                       # Number of branches committed
system.switch_cpus0.commit.fp_insts                 0                       # Number of committed floating point instructions.
system.switch_cpus0.commit.int_insts         99179496                       # Number of committed integer instructions.
system.switch_cpus0.commit.function_calls      1536069                       # Number of function calls committed.
system.switch_cpus0.commit.bw_lim_events      4136657                       # number cycles where commit BW limit reached
system.switch_cpus0.commit.bw_limited               0                       # number of insts not committed due to BW limits
system.switch_cpus0.rob.rob_reads           228790094                       # The number of ROB reads
system.switch_cpus0.rob.rob_writes          333188972                       # The number of ROB writes
system.switch_cpus0.timesIdled                  28369                       # Number of times that the entire CPU went into an idle state and unscheduled itself
system.switch_cpus0.idleCycles                1182041                       # Total number of cycles that the CPU has spent unscheduled due to idling
system.switch_cpus0.committedInsts          100000002                       # Number of Instructions Simulated
system.switch_cpus0.committedOps            113611585                       # Number of Ops (including micro ops) Simulated
system.switch_cpus0.committedInsts_total    100000002                       # Number of Instructions Simulated
system.switch_cpus0.cpi                      0.780511                       # CPI: Cycles Per Instruction
system.switch_cpus0.cpi_total                0.780511                       # CPI: Total CPI of All Threads
system.switch_cpus0.ipc                      1.281213                       # IPC: Instructions Per Cycle
system.switch_cpus0.ipc_total                1.281213                       # IPC: Total IPC of All Threads
system.switch_cpus0.int_regfile_reads       624823792                       # number of integer regfile reads
system.switch_cpus0.int_regfile_writes      174545068                       # number of integer regfile writes
system.switch_cpus0.misc_regfile_reads      182372425                       # number of misc regfile reads
system.switch_cpus0.misc_regfile_writes         19844                       # number of misc regfile writes
system.switch_cpus1.dtb.inst_hits                   0                       # ITB inst hits
system.switch_cpus1.dtb.inst_misses                 0                       # ITB inst misses
system.switch_cpus1.dtb.read_hits                   0                       # DTB read hits
system.switch_cpus1.dtb.read_misses                 0                       # DTB read misses
system.switch_cpus1.dtb.write_hits                  0                       # DTB write hits
system.switch_cpus1.dtb.write_misses                0                       # DTB write misses
system.switch_cpus1.dtb.flush_tlb                   0                       # Number of times complete TLB was flushed
system.switch_cpus1.dtb.flush_tlb_mva               0                       # Number of times TLB was flushed by MVA
system.switch_cpus1.dtb.flush_tlb_mva_asid            0                       # Number of times TLB was flushed by MVA & ASID
system.switch_cpus1.dtb.flush_tlb_asid              0                       # Number of times TLB was flushed by ASID
system.switch_cpus1.dtb.flush_entries               0                       # Number of entries that have been flushed from TLB
system.switch_cpus1.dtb.align_faults                0                       # Number of TLB faults due to alignment restrictions
system.switch_cpus1.dtb.prefetch_faults             0                       # Number of TLB faults due to prefetch
system.switch_cpus1.dtb.domain_faults               0                       # Number of TLB faults due to domain restrictions
system.switch_cpus1.dtb.perms_faults                0                       # Number of TLB faults due to permissions restrictions
system.switch_cpus1.dtb.read_accesses               0                       # DTB read accesses
system.switch_cpus1.dtb.write_accesses              0                       # DTB write accesses
system.switch_cpus1.dtb.inst_accesses               0                       # ITB inst accesses
system.switch_cpus1.dtb.hits                        0                       # DTB hits
system.switch_cpus1.dtb.misses                      0                       # DTB misses
system.switch_cpus1.dtb.accesses                    0                       # DTB accesses
system.switch_cpus1.itb.inst_hits                   0                       # ITB inst hits
system.switch_cpus1.itb.inst_misses                 0                       # ITB inst misses
system.switch_cpus1.itb.read_hits                   0                       # DTB read hits
system.switch_cpus1.itb.read_misses                 0                       # DTB read misses
system.switch_cpus1.itb.write_hits                  0                       # DTB write hits
system.switch_cpus1.itb.write_misses                0                       # DTB write misses
system.switch_cpus1.itb.flush_tlb                   0                       # Number of times complete TLB was flushed
system.switch_cpus1.itb.flush_tlb_mva               0                       # Number of times TLB was flushed by MVA
system.switch_cpus1.itb.flush_tlb_mva_asid            0                       # Number of times TLB was flushed by MVA & ASID
system.switch_cpus1.itb.flush_tlb_asid              0                       # Number of times TLB was flushed by ASID
system.switch_cpus1.itb.flush_entries               0                       # Number of entries that have been flushed from TLB
system.switch_cpus1.itb.align_faults                0                       # Number of TLB faults due to alignment restrictions
system.switch_cpus1.itb.prefetch_faults             0                       # Number of TLB faults due to prefetch
system.switch_cpus1.itb.domain_faults               0                       # Number of TLB faults due to domain restrictions
system.switch_cpus1.itb.perms_faults                0                       # Number of TLB faults due to permissions restrictions
system.switch_cpus1.itb.read_accesses               0                       # DTB read accesses
system.switch_cpus1.itb.write_accesses              0                       # DTB write accesses
system.switch_cpus1.itb.inst_accesses               0                       # ITB inst accesses
system.switch_cpus1.itb.hits                        0                       # DTB hits
system.switch_cpus1.itb.misses                      0                       # DTB misses
system.switch_cpus1.itb.accesses                    0                       # DTB accesses
system.cpu1.workload.num_syscalls                   0                       # Number of system calls
system.switch_cpus1.numCycles                78051066                       # number of cpu cycles simulated
system.switch_cpus1.numWorkItemsStarted             0                       # number of work items this cpu started
system.switch_cpus1.numWorkItemsCompleted            0                       # number of work items this cpu completed
system.switch_cpus1.BPredUnit.lookups        29393628                       # Number of BP lookups
system.switch_cpus1.BPredUnit.condPredicted     23988430                       # Number of conditional branches predicted
system.switch_cpus1.BPredUnit.condIncorrect      1961197                       # Number of conditional branches incorrect
system.switch_cpus1.BPredUnit.BTBLookups     12396113                       # Number of BTB lookups
system.switch_cpus1.BPredUnit.BTBHits        11606103                       # Number of BTB hits
system.switch_cpus1.BPredUnit.BTBCorrect            0                       # Number of correct BTB predictions (this stat may not work properly.
system.switch_cpus1.BPredUnit.usedRAS         3037220                       # Number of times the RAS was used to get a target.
system.switch_cpus1.BPredUnit.RASInCorrect        86203                       # Number of incorrect RAS predictions.
system.switch_cpus1.fetch.icacheStallCycles     30454163                       # Number of cycles fetch is stalled on an Icache miss
system.switch_cpus1.fetch.Insts             159735816                       # Number of instructions fetch has processed
system.switch_cpus1.fetch.Branches           29393628                       # Number of branches that fetch encountered
system.switch_cpus1.fetch.predictedBranches     14643323                       # Number of branches that fetch has predicted taken
system.switch_cpus1.fetch.Cycles             34634813                       # Number of cycles fetch has run and was not squashing or blocked
system.switch_cpus1.fetch.SquashCycles       10228384                       # Number of cycles fetch has spent squashing
system.switch_cpus1.fetch.BlockedCycles       4436962                       # Number of cycles fetch has spent blocked
system.switch_cpus1.fetch.PendingTrapStallCycles           14                       # Number of stall cycles due to pending traps
system.switch_cpus1.fetch.CacheLines         14824294                       # Number of cache lines fetched
system.switch_cpus1.fetch.IcacheSquashes       753914                       # Number of outstanding Icache misses that were squashed
system.switch_cpus1.fetch.rateDist::samples     77776854                       # Number of instructions fetched each cycle (Total)
system.switch_cpus1.fetch.rateDist::mean     2.539502                       # Number of instructions fetched each cycle (Total)
system.switch_cpus1.fetch.rateDist::stdev     3.338360                       # Number of instructions fetched each cycle (Total)
system.switch_cpus1.fetch.rateDist::underflows            0      0.00%      0.00% # Number of instructions fetched each cycle (Total)
system.switch_cpus1.fetch.rateDist::0        43142041     55.47%     55.47% # Number of instructions fetched each cycle (Total)
system.switch_cpus1.fetch.rateDist::1         2823267      3.63%     59.10% # Number of instructions fetched each cycle (Total)
system.switch_cpus1.fetch.rateDist::2         4272811      5.49%     64.59% # Number of instructions fetched each cycle (Total)
system.switch_cpus1.fetch.rateDist::3         2949112      3.79%     68.38% # Number of instructions fetched each cycle (Total)
system.switch_cpus1.fetch.rateDist::4         2072246      2.66%     71.05% # Number of instructions fetched each cycle (Total)
system.switch_cpus1.fetch.rateDist::5         2028420      2.61%     73.66% # Number of instructions fetched each cycle (Total)
system.switch_cpus1.fetch.rateDist::6         1217357      1.57%     75.22% # Number of instructions fetched each cycle (Total)
system.switch_cpus1.fetch.rateDist::7         2609757      3.36%     78.58% # Number of instructions fetched each cycle (Total)
system.switch_cpus1.fetch.rateDist::8        16661843     21.42%    100.00% # Number of instructions fetched each cycle (Total)
system.switch_cpus1.fetch.rateDist::overflows            0      0.00%    100.00% # Number of instructions fetched each cycle (Total)
system.switch_cpus1.fetch.rateDist::min_value            0                       # Number of instructions fetched each cycle (Total)
system.switch_cpus1.fetch.rateDist::max_value            8                       # Number of instructions fetched each cycle (Total)
system.switch_cpus1.fetch.rateDist::total     77776854                       # Number of instructions fetched each cycle (Total)
system.switch_cpus1.fetch.branchRate         0.376595                       # Number of branch fetches per cycle
system.switch_cpus1.fetch.rate               2.046555                       # Number of inst fetches per cycle
system.switch_cpus1.decode.IdleCycles        31319528                       # Number of cycles decode is idle
system.switch_cpus1.decode.BlockedCycles      4652668                       # Number of cycles decode is blocked
system.switch_cpus1.decode.RunCycles         33069281                       # Number of cycles decode is running
system.switch_cpus1.decode.UnblockCycles       484892                       # Number of cycles decode is unblocking
system.switch_cpus1.decode.SquashCycles       8250472                       # Number of cycles decode is squashing
system.switch_cpus1.decode.BranchResolved      4946344                       # Number of times decode resolved a branch
system.switch_cpus1.decode.BranchMispred          562                       # Number of times decode detected a branch misprediction
system.switch_cpus1.decode.DecodedInsts     191288468                       # Number of instructions handled by decode
system.switch_cpus1.decode.SquashedInsts         2455                       # Number of squashed instructions handled by decode
system.switch_cpus1.rename.SquashCycles       8250472                       # Number of cycles rename is squashing
system.switch_cpus1.rename.IdleCycles        33066685                       # Number of cycles rename is idle
system.switch_cpus1.rename.BlockCycles         467272                       # Number of cycles rename is blocking
system.switch_cpus1.rename.serializeStallCycles      1660686                       # count of cycles rename stalled for serializing inst
system.switch_cpus1.rename.RunCycles         31771285                       # Number of cycles rename is running
system.switch_cpus1.rename.UnblockCycles      2560443                       # Number of cycles rename is unblocking
system.switch_cpus1.rename.RenamedInsts     185591975                       # Number of instructions processed by rename
system.switch_cpus1.rename.ROBFullEvents           11                       # Number of times rename has blocked due to ROB full
system.switch_cpus1.rename.IQFullEvents       1073951                       # Number of times rename has blocked due to IQ full
system.switch_cpus1.rename.LSQFullEvents       870447                       # Number of times rename has blocked due to LSQ full
system.switch_cpus1.rename.RenamedOperands    260194352                       # Number of destination operands rename has renamed
system.switch_cpus1.rename.RenameLookups    863896631                       # Number of register rename lookups that rename has made
system.switch_cpus1.rename.int_rename_lookups    863896631                       # Number of integer rename lookups
system.switch_cpus1.rename.CommittedMaps    160355657                       # Number of HB maps that are committed
system.switch_cpus1.rename.UndoneMaps        99838657                       # Number of HB maps that are undone due to squashing
system.switch_cpus1.rename.serializingInsts        33444                       # count of serializing insts renamed
system.switch_cpus1.rename.tempSerializingInsts        15971                       # count of temporary serializing insts renamed
system.switch_cpus1.rename.skidInsts          7618596                       # count of insts added to the skid buffer
system.switch_cpus1.memDep0.insertedLoads     17047093                       # Number of loads inserted to the mem dependence unit.
system.switch_cpus1.memDep0.insertedStores      8716211                       # Number of stores inserted to the mem dependence unit.
system.switch_cpus1.memDep0.conflictingLoads       109393                       # Number of conflicting loads.
system.switch_cpus1.memDep0.conflictingStores      2555655                       # Number of conflicting stores.
system.switch_cpus1.iq.iqInstsAdded         173015488                       # Number of instructions added to the IQ (excludes non-spec)
system.switch_cpus1.iq.iqNonSpecInstsAdded        31876                       # Number of non-speculative instructions added to the IQ
system.switch_cpus1.iq.iqInstsIssued        138255966                       # Number of instructions issued
system.switch_cpus1.iq.iqSquashedInstsIssued       275742                       # Number of squashed instructions issued
system.switch_cpus1.iq.iqSquashedInstsExamined     57626534                       # Number of squashed instructions iterated over during squash; mainly for profiling
system.switch_cpus1.iq.iqSquashedOperandsExamined    176310691                       # Number of squashed operands that are examined and possibly removed from graph
system.switch_cpus1.iq.iqSquashedNonSpecRemoved           60                       # Number of squashed non-spec instructions that were removed
system.switch_cpus1.iq.issued_per_cycle::samples     77776854                       # Number of insts issued each cycle
system.switch_cpus1.iq.issued_per_cycle::mean     1.777598                       # Number of insts issued each cycle
system.switch_cpus1.iq.issued_per_cycle::stdev     1.918595                       # Number of insts issued each cycle
system.switch_cpus1.iq.issued_per_cycle::underflows            0      0.00%      0.00% # Number of insts issued each cycle
system.switch_cpus1.iq.issued_per_cycle::0     27748661     35.68%     35.68% # Number of insts issued each cycle
system.switch_cpus1.iq.issued_per_cycle::1     15596983     20.05%     55.73% # Number of insts issued each cycle
system.switch_cpus1.iq.issued_per_cycle::2     11219860     14.43%     70.16% # Number of insts issued each cycle
system.switch_cpus1.iq.issued_per_cycle::3      7464052      9.60%     79.75% # Number of insts issued each cycle
system.switch_cpus1.iq.issued_per_cycle::4      7549785      9.71%     89.46% # Number of insts issued each cycle
system.switch_cpus1.iq.issued_per_cycle::5      3636803      4.68%     94.14% # Number of insts issued each cycle
system.switch_cpus1.iq.issued_per_cycle::6      3215758      4.13%     98.27% # Number of insts issued each cycle
system.switch_cpus1.iq.issued_per_cycle::7       610212      0.78%     99.06% # Number of insts issued each cycle
system.switch_cpus1.iq.issued_per_cycle::8       734740      0.94%    100.00% # Number of insts issued each cycle
system.switch_cpus1.iq.issued_per_cycle::overflows            0      0.00%    100.00% # Number of insts issued each cycle
system.switch_cpus1.iq.issued_per_cycle::min_value            0                       # Number of insts issued each cycle
system.switch_cpus1.iq.issued_per_cycle::max_value            8                       # Number of insts issued each cycle
system.switch_cpus1.iq.issued_per_cycle::total     77776854                       # Number of insts issued each cycle
system.switch_cpus1.iq.fu_full::No_OpClass            0      0.00%      0.00% # attempts to use FU when none available
system.switch_cpus1.iq.fu_full::IntAlu         750893     70.92%     70.92% # attempts to use FU when none available
system.switch_cpus1.iq.fu_full::IntMult             9      0.00%     70.92% # attempts to use FU when none available
system.switch_cpus1.iq.fu_full::IntDiv              0      0.00%     70.92% # attempts to use FU when none available
system.switch_cpus1.iq.fu_full::FloatAdd            0      0.00%     70.92% # attempts to use FU when none available
system.switch_cpus1.iq.fu_full::FloatCmp            0      0.00%     70.92% # attempts to use FU when none available
system.switch_cpus1.iq.fu_full::FloatCvt            0      0.00%     70.92% # attempts to use FU when none available
system.switch_cpus1.iq.fu_full::FloatMult            0      0.00%     70.92% # attempts to use FU when none available
system.switch_cpus1.iq.fu_full::FloatDiv            0      0.00%     70.92% # attempts to use FU when none available
system.switch_cpus1.iq.fu_full::FloatSqrt            0      0.00%     70.92% # attempts to use FU when none available
system.switch_cpus1.iq.fu_full::SimdAdd             0      0.00%     70.92% # attempts to use FU when none available
system.switch_cpus1.iq.fu_full::SimdAddAcc            0      0.00%     70.92% # attempts to use FU when none available
system.switch_cpus1.iq.fu_full::SimdAlu             0      0.00%     70.92% # attempts to use FU when none available
system.switch_cpus1.iq.fu_full::SimdCmp             0      0.00%     70.92% # attempts to use FU when none available
system.switch_cpus1.iq.fu_full::SimdCvt             0      0.00%     70.92% # attempts to use FU when none available
system.switch_cpus1.iq.fu_full::SimdMisc            0      0.00%     70.92% # attempts to use FU when none available
system.switch_cpus1.iq.fu_full::SimdMult            0      0.00%     70.92% # attempts to use FU when none available
system.switch_cpus1.iq.fu_full::SimdMultAcc            0      0.00%     70.92% # attempts to use FU when none available
system.switch_cpus1.iq.fu_full::SimdShift            0      0.00%     70.92% # attempts to use FU when none available
system.switch_cpus1.iq.fu_full::SimdShiftAcc            0      0.00%     70.92% # attempts to use FU when none available
system.switch_cpus1.iq.fu_full::SimdSqrt            0      0.00%     70.92% # attempts to use FU when none available
system.switch_cpus1.iq.fu_full::SimdFloatAdd            0      0.00%     70.92% # attempts to use FU when none available
system.switch_cpus1.iq.fu_full::SimdFloatAlu            0      0.00%     70.92% # attempts to use FU when none available
system.switch_cpus1.iq.fu_full::SimdFloatCmp            0      0.00%     70.92% # attempts to use FU when none available
system.switch_cpus1.iq.fu_full::SimdFloatCvt            0      0.00%     70.92% # attempts to use FU when none available
system.switch_cpus1.iq.fu_full::SimdFloatDiv            0      0.00%     70.92% # attempts to use FU when none available
system.switch_cpus1.iq.fu_full::SimdFloatMisc            0      0.00%     70.92% # attempts to use FU when none available
system.switch_cpus1.iq.fu_full::SimdFloatMult            0      0.00%     70.92% # attempts to use FU when none available
system.switch_cpus1.iq.fu_full::SimdFloatMultAcc            0      0.00%     70.92% # attempts to use FU when none available
system.switch_cpus1.iq.fu_full::SimdFloatSqrt            0      0.00%     70.92% # attempts to use FU when none available
system.switch_cpus1.iq.fu_full::MemRead        149919     14.16%     85.08% # attempts to use FU when none available
system.switch_cpus1.iq.fu_full::MemWrite       157998     14.92%    100.00% # attempts to use FU when none available
system.switch_cpus1.iq.fu_full::IprAccess            0      0.00%    100.00% # attempts to use FU when none available
system.switch_cpus1.iq.fu_full::InstPrefetch            0      0.00%    100.00% # attempts to use FU when none available
system.switch_cpus1.iq.FU_type_0::No_OpClass            0      0.00%      0.00% # Type of FU issued
system.switch_cpus1.iq.FU_type_0::IntAlu    115617619     83.63%     83.63% # Type of FU issued
system.switch_cpus1.iq.FU_type_0::IntMult      1750438      1.27%     84.89% # Type of FU issued
system.switch_cpus1.iq.FU_type_0::IntDiv            0      0.00%     84.89% # Type of FU issued
system.switch_cpus1.iq.FU_type_0::FloatAdd            0      0.00%     84.89% # Type of FU issued
system.switch_cpus1.iq.FU_type_0::FloatCmp            0      0.00%     84.89% # Type of FU issued
system.switch_cpus1.iq.FU_type_0::FloatCvt            0      0.00%     84.89% # Type of FU issued
system.switch_cpus1.iq.FU_type_0::FloatMult            0      0.00%     84.89% # Type of FU issued
system.switch_cpus1.iq.FU_type_0::FloatDiv            0      0.00%     84.89% # Type of FU issued
system.switch_cpus1.iq.FU_type_0::FloatSqrt            0      0.00%     84.89% # Type of FU issued
system.switch_cpus1.iq.FU_type_0::SimdAdd            0      0.00%     84.89% # Type of FU issued
system.switch_cpus1.iq.FU_type_0::SimdAddAcc            0      0.00%     84.89% # Type of FU issued
system.switch_cpus1.iq.FU_type_0::SimdAlu            0      0.00%     84.89% # Type of FU issued
system.switch_cpus1.iq.FU_type_0::SimdCmp            0      0.00%     84.89% # Type of FU issued
system.switch_cpus1.iq.FU_type_0::SimdCvt            0      0.00%     84.89% # Type of FU issued
system.switch_cpus1.iq.FU_type_0::SimdMisc            0      0.00%     84.89% # Type of FU issued
system.switch_cpus1.iq.FU_type_0::SimdMult            0      0.00%     84.89% # Type of FU issued
system.switch_cpus1.iq.FU_type_0::SimdMultAcc            0      0.00%     84.89% # Type of FU issued
system.switch_cpus1.iq.FU_type_0::SimdShift            0      0.00%     84.89% # Type of FU issued
system.switch_cpus1.iq.FU_type_0::SimdShiftAcc            0      0.00%     84.89% # Type of FU issued
system.switch_cpus1.iq.FU_type_0::SimdSqrt            0      0.00%     84.89% # Type of FU issued
system.switch_cpus1.iq.FU_type_0::SimdFloatAdd            0      0.00%     84.89% # Type of FU issued
system.switch_cpus1.iq.FU_type_0::SimdFloatAlu            0      0.00%     84.89% # Type of FU issued
system.switch_cpus1.iq.FU_type_0::SimdFloatCmp            0      0.00%     84.89% # Type of FU issued
system.switch_cpus1.iq.FU_type_0::SimdFloatCvt            0      0.00%     84.89% # Type of FU issued
system.switch_cpus1.iq.FU_type_0::SimdFloatDiv            0      0.00%     84.89% # Type of FU issued
system.switch_cpus1.iq.FU_type_0::SimdFloatMisc        15908      0.01%     84.90% # Type of FU issued
system.switch_cpus1.iq.FU_type_0::SimdFloatMult            0      0.00%     84.90% # Type of FU issued
system.switch_cpus1.iq.FU_type_0::SimdFloatMultAcc            0      0.00%     84.90% # Type of FU issued
system.switch_cpus1.iq.FU_type_0::SimdFloatSqrt            0      0.00%     84.90% # Type of FU issued
system.switch_cpus1.iq.FU_type_0::MemRead     13602165      9.84%     94.74% # Type of FU issued
system.switch_cpus1.iq.FU_type_0::MemWrite      7269836      5.26%    100.00% # Type of FU issued
system.switch_cpus1.iq.FU_type_0::IprAccess            0      0.00%    100.00% # Type of FU issued
system.switch_cpus1.iq.FU_type_0::InstPrefetch            0      0.00%    100.00% # Type of FU issued
system.switch_cpus1.iq.FU_type_0::total     138255966                       # Type of FU issued
system.switch_cpus1.iq.rate                  1.771353                       # Inst issue rate
system.switch_cpus1.iq.fu_busy_cnt            1058819                       # FU busy when requested
system.switch_cpus1.iq.fu_busy_rate          0.007658                       # FU busy rate (busy events/executed inst)
system.switch_cpus1.iq.int_inst_queue_reads    355623341                       # Number of integer instruction queue reads
system.switch_cpus1.iq.int_inst_queue_writes    230674359                       # Number of integer instruction queue writes
system.switch_cpus1.iq.int_inst_queue_wakeup_accesses    134431983                       # Number of integer instruction queue wakeup accesses
system.switch_cpus1.iq.fp_inst_queue_reads            0                       # Number of floating instruction queue reads
system.switch_cpus1.iq.fp_inst_queue_writes            0                       # Number of floating instruction queue writes
system.switch_cpus1.iq.fp_inst_queue_wakeup_accesses            0                       # Number of floating instruction queue wakeup accesses
system.switch_cpus1.iq.int_alu_accesses     139314785                       # Number of integer alu accesses
system.switch_cpus1.iq.fp_alu_accesses              0                       # Number of floating point alu accesses
system.switch_cpus1.iew.lsq.thread0.forwLoads       433950                       # Number of loads that had data forwarded from stores
system.switch_cpus1.iew.lsq.thread0.invAddrLoads            0                       # Number of loads ignored due to an invalid address
system.switch_cpus1.iew.lsq.thread0.squashedLoads      6611586                       # Number of loads squashed
system.switch_cpus1.iew.lsq.thread0.ignoredResponses         5742                       # Number of memory responses ignored because the instruction is squashed
system.switch_cpus1.iew.lsq.thread0.memOrderViolation          463                       # Number of memory ordering violations
system.switch_cpus1.iew.lsq.thread0.squashedStores      2086085                       # Number of stores squashed
system.switch_cpus1.iew.lsq.thread0.invAddrSwpfs            0                       # Number of software prefetches ignored due to an invalid address
system.switch_cpus1.iew.lsq.thread0.blockedLoads            0                       # Number of blocked loads due to partial load-store forwarding
system.switch_cpus1.iew.lsq.thread0.rescheduledLoads            0                       # Number of loads that were rescheduled
system.switch_cpus1.iew.lsq.thread0.cacheBlocked            0                       # Number of times an access to memory failed due to the cache being blocked
system.switch_cpus1.iew.iewIdleCycles               0                       # Number of cycles IEW is idle
system.switch_cpus1.iew.iewSquashCycles       8250472                       # Number of cycles IEW is squashing
system.switch_cpus1.iew.iewBlockCycles         243845                       # Number of cycles IEW is blocking
system.switch_cpus1.iew.iewUnblockCycles        46076                       # Number of cycles IEW is unblocking
system.switch_cpus1.iew.iewDispatchedInsts    173047366                       # Number of instructions dispatched to IQ
system.switch_cpus1.iew.iewDispSquashedInsts       604719                       # Number of squashed instructions skipped by dispatch
system.switch_cpus1.iew.iewDispLoadInsts     17047093                       # Number of dispatched load instructions
system.switch_cpus1.iew.iewDispStoreInsts      8716211                       # Number of dispatched store instructions
system.switch_cpus1.iew.iewDispNonSpecInsts        15968                       # Number of dispatched non-speculative instructions
system.switch_cpus1.iew.iewIQFullEvents         39059                       # Number of times the IQ has become full, causing a stall
system.switch_cpus1.iew.iewLSQFullEvents            2                       # Number of times the LSQ has become full, causing a stall
system.switch_cpus1.iew.memOrderViolationEvents          463                       # Number of memory order violations
system.switch_cpus1.iew.predictedTakenIncorrect      1194600                       # Number of branches that were predicted taken incorrectly
system.switch_cpus1.iew.predictedNotTakenIncorrect      1067916                       # Number of branches that were predicted not taken incorrectly
system.switch_cpus1.iew.branchMispredicts      2262516                       # Number of branch mispredicts detected at execute
system.switch_cpus1.iew.iewExecutedInsts    135715593                       # Number of executed instructions
system.switch_cpus1.iew.iewExecLoadInsts     12714401                       # Number of load instructions executed
system.switch_cpus1.iew.iewExecSquashedInsts      2540367                       # Number of squashed instructions skipped in execute
system.switch_cpus1.iew.exec_swp                    0                       # number of swp insts executed
system.switch_cpus1.iew.exec_nop                    2                       # number of nop insts executed
system.switch_cpus1.iew.exec_refs            19805978                       # number of memory reference insts executed
system.switch_cpus1.iew.exec_branches        19288541                       # Number of branches executed
system.switch_cpus1.iew.exec_stores           7091577                       # Number of stores executed
system.switch_cpus1.iew.exec_rate            1.738805                       # Inst execution rate
system.switch_cpus1.iew.wb_sent             134490453                       # cumulative count of insts sent to commit
system.switch_cpus1.iew.wb_count            134431983                       # cumulative count of insts written-back
system.switch_cpus1.iew.wb_producers         87097489                       # num instructions producing a value
system.switch_cpus1.iew.wb_consumers        247361669                       # num instructions consuming a value
system.switch_cpus1.iew.wb_penalized                0                       # number of instrctions required to write to 'other' IQ
system.switch_cpus1.iew.wb_rate              1.722359                       # insts written-back per cycle
system.switch_cpus1.iew.wb_fanout            0.352106                       # average fanout of values written-back
system.switch_cpus1.iew.wb_penalized_rate            0                       # fraction of instructions written-back that wrote to 'other' IQ
system.switch_cpus1.commit.commitCommittedInsts     93262087                       # The number of committed instructions
system.switch_cpus1.commit.commitCommittedOps    114955299                       # The number of committed instructions
system.switch_cpus1.commit.commitSquashedInsts     58092267                       # The number of squashed insts skipped by commit
system.switch_cpus1.commit.commitNonSpecStalls        31816                       # The number of times commit has been forced to stall to communicate backwards
system.switch_cpus1.commit.branchMispredicts      1976742                       # The number of times a branch was mispredicted
system.switch_cpus1.commit.committed_per_cycle::samples     69526382                       # Number of insts commited each cycle
system.switch_cpus1.commit.committed_per_cycle::mean     1.653405                       # Number of insts commited each cycle
system.switch_cpus1.commit.committed_per_cycle::stdev     2.177426                       # Number of insts commited each cycle
system.switch_cpus1.commit.committed_per_cycle::underflows            0      0.00%      0.00% # Number of insts commited each cycle
system.switch_cpus1.commit.committed_per_cycle::0     26527351     38.15%     38.15% # Number of insts commited each cycle
system.switch_cpus1.commit.committed_per_cycle::1     19934934     28.67%     66.83% # Number of insts commited each cycle
system.switch_cpus1.commit.committed_per_cycle::2      7540265     10.85%     77.67% # Number of insts commited each cycle
system.switch_cpus1.commit.committed_per_cycle::3      4222555      6.07%     83.75% # Number of insts commited each cycle
system.switch_cpus1.commit.committed_per_cycle::4      3564090      5.13%     88.87% # Number of insts commited each cycle
system.switch_cpus1.commit.committed_per_cycle::5      1596379      2.30%     91.17% # Number of insts commited each cycle
system.switch_cpus1.commit.committed_per_cycle::6      1523875      2.19%     93.36% # Number of insts commited each cycle
system.switch_cpus1.commit.committed_per_cycle::7      1044799      1.50%     94.86% # Number of insts commited each cycle
system.switch_cpus1.commit.committed_per_cycle::8      3572134      5.14%    100.00% # Number of insts commited each cycle
system.switch_cpus1.commit.committed_per_cycle::overflows            0      0.00%    100.00% # Number of insts commited each cycle
system.switch_cpus1.commit.committed_per_cycle::min_value            0                       # Number of insts commited each cycle
system.switch_cpus1.commit.committed_per_cycle::max_value            8                       # Number of insts commited each cycle
system.switch_cpus1.commit.committed_per_cycle::total     69526382                       # Number of insts commited each cycle
system.switch_cpus1.commit.committedInsts     93262087                       # Number of instructions committed
system.switch_cpus1.commit.committedOps     114955299                       # Number of ops (including micro ops) committed
system.switch_cpus1.commit.swp_count                0                       # Number of s/w prefetches committed
[...]
system.cpu2.icache.overall_accesses::switch_cpus2.inst     15416330                       # number of overall (read+write) accesses
system.cpu2.icache.overall_accesses::total     15416330                       # number of overall (read+write) accesses
system.cpu2.icache.ReadReq_miss_rate::switch_cpus2.inst     0.000001                       # miss rate for ReadReq accesses
system.cpu2.icache.ReadReq_miss_rate::total     0.000001                       # miss rate for ReadReq accesses
system.cpu2.icache.demand_miss_rate::switch_cpus2.inst     0.000001                       # miss rate for demand accesses
system.cpu2.icache.demand_miss_rate::total     0.000001                       # miss rate for demand accesses
system.cpu2.icache.overall_miss_rate::switch_cpus2.inst     0.000001                       # miss rate for overall accesses
system.cpu2.icache.overall_miss_rate::total     0.000001                       # miss rate for overall accesses
system.cpu2.icache.ReadReq_avg_miss_latency::switch_cpus2.inst 56938.947368                       # average ReadReq miss latency
system.cpu2.icache.ReadReq_avg_miss_latency::total 56938.947368                       # average ReadReq miss latency
system.cpu2.icache.demand_avg_miss_latency::switch_cpus2.inst 56938.947368                       # average overall miss latency
system.cpu2.icache.demand_avg_miss_latency::total 56938.947368                       # average overall miss latency
system.cpu2.icache.overall_avg_miss_latency::switch_cpus2.inst 56938.947368                       # average overall miss latency
system.cpu2.icache.overall_avg_miss_latency::total 56938.947368                       # average overall miss latency
system.cpu2.icache.blocked_cycles::no_mshrs            0                       # number of cycles access was blocked
system.cpu2.icache.blocked_cycles::no_targets            0                       # number of cycles access was blocked
system.cpu2.icache.blocked::no_mshrs                0                       # number of cycles access was blocked
system.cpu2.icache.blocked::no_targets              0                       # number of cycles access was blocked
system.cpu2.icache.avg_blocked_cycles::no_mshrs          nan                       # average number of cycles each access was blocked
system.cpu2.icache.avg_blocked_cycles::no_targets          nan                       # average number of cycles each access was blocked
system.cpu2.icache.fast_writes                      0                       # number of fast writes performed
system.cpu2.icache.cache_copies                     0                       # number of cache copies performed
system.cpu2.icache.ReadReq_mshr_hits::switch_cpus2.inst            6                       # number of ReadReq MSHR hits
system.cpu2.icache.ReadReq_mshr_hits::total            6                       # number of ReadReq MSHR hits
system.cpu2.icache.demand_mshr_hits::switch_cpus2.inst            6                       # number of demand (read+write) MSHR hits
system.cpu2.icache.demand_mshr_hits::total            6                       # number of demand (read+write) MSHR hits
system.cpu2.icache.overall_mshr_hits::switch_cpus2.inst            6                       # number of overall MSHR hits
system.cpu2.icache.overall_mshr_hits::total            6                       # number of overall MSHR hits
system.cpu2.icache.ReadReq_mshr_misses::switch_cpus2.inst           13                       # number of ReadReq MSHR misses
system.cpu2.icache.ReadReq_mshr_misses::total           13                       # number of ReadReq MSHR misses
system.cpu2.icache.demand_mshr_misses::switch_cpus2.inst           13                       # number of demand (read+write) MSHR misses
system.cpu2.icache.demand_mshr_misses::total           13                       # number of demand (read+write) MSHR misses
system.cpu2.icache.overall_mshr_misses::switch_cpus2.inst           13                       # number of overall MSHR misses
system.cpu2.icache.overall_mshr_misses::total           13                       # number of overall MSHR misses
system.cpu2.icache.ReadReq_mshr_miss_latency::switch_cpus2.inst       803399                       # number of ReadReq MSHR miss cycles
system.cpu2.icache.ReadReq_mshr_miss_latency::total       803399                       # number of ReadReq MSHR miss cycles
system.cpu2.icache.demand_mshr_miss_latency::switch_cpus2.inst       803399                       # number of demand (read+write) MSHR miss cycles
system.cpu2.icache.demand_mshr_miss_latency::total       803399                       # number of demand (read+write) MSHR miss cycles
system.cpu2.icache.overall_mshr_miss_latency::switch_cpus2.inst       803399                       # number of overall MSHR miss cycles
system.cpu2.icache.overall_mshr_miss_latency::total       803399                       # number of overall MSHR miss cycles
system.cpu2.icache.ReadReq_mshr_miss_rate::switch_cpus2.inst     0.000001                       # mshr miss rate for ReadReq accesses
system.cpu2.icache.ReadReq_mshr_miss_rate::total     0.000001                       # mshr miss rate for ReadReq accesses
system.cpu2.icache.demand_mshr_miss_rate::switch_cpus2.inst     0.000001                       # mshr miss rate for demand accesses
system.cpu2.icache.demand_mshr_miss_rate::total     0.000001                       # mshr miss rate for demand accesses
system.cpu2.icache.overall_mshr_miss_rate::switch_cpus2.inst     0.000001                       # mshr miss rate for overall accesses
system.cpu2.icache.overall_mshr_miss_rate::total     0.000001                       # mshr miss rate for overall accesses
system.cpu2.icache.ReadReq_avg_mshr_miss_latency::switch_cpus2.inst 61799.923077                       # average ReadReq mshr miss latency
system.cpu2.icache.ReadReq_avg_mshr_miss_latency::total 61799.923077                       # average ReadReq mshr miss latency
system.cpu2.icache.demand_avg_mshr_miss_latency::switch_cpus2.inst 61799.923077                       # average overall mshr miss latency
system.cpu2.icache.demand_avg_mshr_miss_latency::total 61799.923077                       # average overall mshr miss latency
system.cpu2.icache.overall_avg_mshr_miss_latency::switch_cpus2.inst 61799.923077                       # average overall mshr miss latency
system.cpu2.icache.overall_avg_mshr_miss_latency::total 61799.923077                       # average overall mshr miss latency
system.cpu2.icache.no_allocate_misses               0                       # Number of misses that were no-allocate
system.cpu2.dcache.replacements                 47783                       # number of replacements
system.cpu2.dcache.tagsinuse                      256                       # Cycle average of tags in use
system.cpu2.dcache.total_refs               185295134                       # Total number of references to valid blocks.
system.cpu2.dcache.sampled_refs                 48039                       # Sample count of references to valid blocks.
system.cpu2.dcache.avg_refs               3857.181332                       # Average number of references to valid blocks.
system.cpu2.dcache.warmup_cycle                     0                       # Cycle when the warmup percentage was hit.
system.cpu2.dcache.occ_blocks::switch_cpus2.data   233.551725                       # Average occupied blocks per requestor
system.cpu2.dcache.occ_blocks::cpu2.data    22.448275                       # Average occupied blocks per requestor
system.cpu2.dcache.occ_percent::switch_cpus2.data     0.912311                       # Average percentage of cache occupancy
system.cpu2.dcache.occ_percent::cpu2.data     0.087689                       # Average percentage of cache occupancy
system.cpu2.dcache.occ_percent::total               1                       # Average percentage of cache occupancy
system.cpu2.dcache.ReadReq_hits::switch_cpus2.data      9583257                       # number of ReadReq hits
system.cpu2.dcache.ReadReq_hits::total        9583257                       # number of ReadReq hits
system.cpu2.dcache.WriteReq_hits::switch_cpus2.data      6599139                       # number of WriteReq hits
system.cpu2.dcache.WriteReq_hits::total       6599139                       # number of WriteReq hits
system.cpu2.dcache.LoadLockedReq_hits::switch_cpus2.data        16247                       # number of LoadLockedReq hits
system.cpu2.dcache.LoadLockedReq_hits::total        16247                       # number of LoadLockedReq hits
system.cpu2.dcache.StoreCondReq_hits::switch_cpus2.data        15312                       # number of StoreCondReq hits
system.cpu2.dcache.StoreCondReq_hits::total        15312                       # number of StoreCondReq hits
system.cpu2.dcache.demand_hits::switch_cpus2.data     16182396                       # number of demand (read+write) hits
system.cpu2.dcache.demand_hits::total        16182396                       # number of demand (read+write) hits
system.cpu2.dcache.overall_hits::switch_cpus2.data     16182396                       # number of overall hits
system.cpu2.dcache.overall_hits::total       16182396                       # number of overall hits
system.cpu2.dcache.ReadReq_misses::switch_cpus2.data       121901                       # number of ReadReq misses
system.cpu2.dcache.ReadReq_misses::total       121901                       # number of ReadReq misses
system.cpu2.dcache.WriteReq_misses::switch_cpus2.data         2577                       # number of WriteReq misses
system.cpu2.dcache.WriteReq_misses::total         2577                       # number of WriteReq misses
system.cpu2.dcache.demand_misses::switch_cpus2.data       124478                       # number of demand (read+write) misses
system.cpu2.dcache.demand_misses::total        124478                       # number of demand (read+write) misses
system.cpu2.dcache.overall_misses::switch_cpus2.data       124478                       # number of overall misses
system.cpu2.dcache.overall_misses::total       124478                       # number of overall misses
system.cpu2.dcache.ReadReq_miss_latency::switch_cpus2.data   4134350102                       # number of ReadReq miss cycles
system.cpu2.dcache.ReadReq_miss_latency::total   4134350102                       # number of ReadReq miss cycles
system.cpu2.dcache.WriteReq_miss_latency::switch_cpus2.data    167609564                       # number of WriteReq miss cycles
system.cpu2.dcache.WriteReq_miss_latency::total    167609564                       # number of WriteReq miss cycles
system.cpu2.dcache.demand_miss_latency::switch_cpus2.data   4301959666                       # number of demand (read+write) miss cycles
system.cpu2.dcache.demand_miss_latency::total   4301959666                       # number of demand (read+write) miss cycles
system.cpu2.dcache.overall_miss_latency::switch_cpus2.data   4301959666                       # number of overall miss cycles
system.cpu2.dcache.overall_miss_latency::total   4301959666                       # number of overall miss cycles
system.cpu2.dcache.ReadReq_accesses::switch_cpus2.data      9705158                       # number of ReadReq accesses(hits+misses)
system.cpu2.dcache.ReadReq_accesses::total      9705158                       # number of ReadReq accesses(hits+misses)
system.cpu2.dcache.WriteReq_accesses::switch_cpus2.data      6601716                       # number of WriteReq accesses(hits+misses)
system.cpu2.dcache.WriteReq_accesses::total      6601716                       # number of WriteReq accesses(hits+misses)
system.cpu2.dcache.LoadLockedReq_accesses::switch_cpus2.data        16247                       # number of LoadLockedReq accesses(hits+misses)
system.cpu2.dcache.LoadLockedReq_accesses::total        16247                       # number of LoadLockedReq accesses(hits+misses)
system.cpu2.dcache.StoreCondReq_accesses::switch_cpus2.data        15312                       # number of StoreCondReq accesses(hits+misses)
system.cpu2.dcache.StoreCondReq_accesses::total        15312                       # number of StoreCondReq accesses(hits+misses)
system.cpu2.dcache.demand_accesses::switch_cpus2.data     16306874                       # number of demand (read+write) accesses
system.cpu2.dcache.demand_accesses::total     16306874                       # number of demand (read+write) accesses
system.cpu2.dcache.overall_accesses::switch_cpus2.data     16306874                       # number of overall (read+write) accesses
system.cpu2.dcache.overall_accesses::total     16306874                       # number of overall (read+write) accesses
system.cpu2.dcache.ReadReq_miss_rate::switch_cpus2.data     0.012560                       # miss rate for ReadReq accesses
system.cpu2.dcache.ReadReq_miss_rate::total     0.012560                       # miss rate for ReadReq accesses
system.cpu2.dcache.WriteReq_miss_rate::switch_cpus2.data     0.000390                       # miss rate for WriteReq accesses
system.cpu2.dcache.WriteReq_miss_rate::total     0.000390                       # miss rate for WriteReq accesses
system.cpu2.dcache.demand_miss_rate::switch_cpus2.data     0.007633                       # miss rate for demand accesses
system.cpu2.dcache.demand_miss_rate::total     0.007633                       # miss rate for demand accesses
system.cpu2.dcache.overall_miss_rate::switch_cpus2.data     0.007633                       # miss rate for overall accesses
system.cpu2.dcache.overall_miss_rate::total     0.007633                       # miss rate for overall accesses
system.cpu2.dcache.ReadReq_avg_miss_latency::switch_cpus2.data 33915.637296                       # average ReadReq miss latency
system.cpu2.dcache.ReadReq_avg_miss_latency::total 33915.637296                       # average ReadReq miss latency
system.cpu2.dcache.WriteReq_avg_miss_latency::switch_cpus2.data 65040.575863                       # average WriteReq miss latency
system.cpu2.dcache.WriteReq_avg_miss_latency::total 65040.575863                       # average WriteReq miss latency
system.cpu2.dcache.demand_avg_miss_latency::switch_cpus2.data 34559.999888                       # average overall miss latency
system.cpu2.dcache.demand_avg_miss_latency::total 34559.999888                       # average overall miss latency
system.cpu2.dcache.overall_avg_miss_latency::switch_cpus2.data 34559.999888                       # average overall miss latency
system.cpu2.dcache.overall_avg_miss_latency::total 34559.999888                       # average overall miss latency
system.cpu2.dcache.blocked_cycles::no_mshrs            0                       # number of cycles access was blocked
system.cpu2.dcache.blocked_cycles::no_targets       400537                       # number of cycles access was blocked
system.cpu2.dcache.blocked::no_mshrs                0                       # number of cycles access was blocked
system.cpu2.dcache.blocked::no_targets              9                       # number of cycles access was blocked
system.cpu2.dcache.avg_blocked_cycles::no_mshrs          nan                       # average number of cycles each access was blocked
system.cpu2.dcache.avg_blocked_cycles::no_targets 44504.111111                       # average number of cycles each access was blocked
system.cpu2.dcache.fast_writes                      0                       # number of fast writes performed
system.cpu2.dcache.cache_copies                     0                       # number of cache copies performed
system.cpu2.dcache.writebacks::writebacks        22001                       # number of writebacks
system.cpu2.dcache.writebacks::total            22001                       # number of writebacks
system.cpu2.dcache.ReadReq_mshr_hits::switch_cpus2.data        74118                       # number of ReadReq MSHR hits
system.cpu2.dcache.ReadReq_mshr_hits::total        74118                       # number of ReadReq MSHR hits
system.cpu2.dcache.WriteReq_mshr_hits::switch_cpus2.data         2577                       # number of WriteReq MSHR hits
system.cpu2.dcache.WriteReq_mshr_hits::total         2577                       # number of WriteReq MSHR hits
system.cpu2.dcache.demand_mshr_hits::switch_cpus2.data        76695                       # number of demand (read+write) MSHR hits
system.cpu2.dcache.demand_mshr_hits::total        76695                       # number of demand (read+write) MSHR hits
system.cpu2.dcache.overall_mshr_hits::switch_cpus2.data        76695                       # number of overall MSHR hits
system.cpu2.dcache.overall_mshr_hits::total        76695                       # number of overall MSHR hits
system.cpu2.dcache.ReadReq_mshr_misses::switch_cpus2.data        47783                       # number of ReadReq MSHR misses
system.cpu2.dcache.ReadReq_mshr_misses::total        47783                       # number of ReadReq MSHR misses
system.cpu2.dcache.demand_mshr_misses::switch_cpus2.data        47783                       # number of demand (read+write) MSHR misses
system.cpu2.dcache.demand_mshr_misses::total        47783                       # number of demand (read+write) MSHR misses
system.cpu2.dcache.overall_mshr_misses::switch_cpus2.data        47783                       # number of overall MSHR misses
system.cpu2.dcache.overall_mshr_misses::total        47783                       # number of overall MSHR misses
system.cpu2.dcache.ReadReq_mshr_miss_latency::switch_cpus2.data    813938156                       # number of ReadReq MSHR miss cycles
system.cpu2.dcache.ReadReq_mshr_miss_latency::total    813938156                       # number of ReadReq MSHR miss cycles
system.cpu2.dcache.demand_mshr_miss_latency::switch_cpus2.data    813938156                       # number of demand (read+write) MSHR miss cycles
system.cpu2.dcache.demand_mshr_miss_latency::total    813938156                       # number of demand (read+write) MSHR miss cycles
system.cpu2.dcache.overall_mshr_miss_latency::switch_cpus2.data    813938156                       # number of overall MSHR miss cycles
system.cpu2.dcache.overall_mshr_miss_latency::total    813938156                       # number of overall MSHR miss cycles
system.cpu2.dcache.ReadReq_mshr_miss_rate::switch_cpus2.data     0.004923                       # mshr miss rate for ReadReq accesses
system.cpu2.dcache.ReadReq_mshr_miss_rate::total     0.004923                       # mshr miss rate for ReadReq accesses
system.cpu2.dcache.demand_mshr_miss_rate::switch_cpus2.data     0.002930                       # mshr miss rate for demand accesses
system.cpu2.dcache.demand_mshr_miss_rate::total     0.002930                       # mshr miss rate for demand accesses
system.cpu2.dcache.overall_mshr_miss_rate::switch_cpus2.data     0.002930                       # mshr miss rate for overall accesses
system.cpu2.dcache.overall_mshr_miss_rate::total     0.002930                       # mshr miss rate for overall accesses
system.cpu2.dcache.ReadReq_avg_mshr_miss_latency::switch_cpus2.data 17034.053031                       # average ReadReq mshr miss latency
system.cpu2.dcache.ReadReq_avg_mshr_miss_latency::total 17034.053031                       # average ReadReq mshr miss latency
system.cpu2.dcache.demand_avg_mshr_miss_latency::switch_cpus2.data 17034.053031                       # average overall mshr miss latency
system.cpu2.dcache.demand_avg_mshr_miss_latency::total 17034.053031                       # average overall mshr miss latency
system.cpu2.dcache.overall_avg_mshr_miss_latency::switch_cpus2.data 17034.053031                       # average overall mshr miss latency
system.cpu2.dcache.overall_avg_mshr_miss_latency::total 17034.053031                       # average overall mshr miss latency
system.cpu2.dcache.no_allocate_misses               0                       # Number of misses that were no-allocate

---------- End Simulation Statistics   ----------
