
---------- Begin Simulation Statistics ----------
sim_seconds                                  0.099853                       # Number of seconds simulated
sim_ticks                                 99852860517                       # Number of ticks simulated
final_tick                               626846757795                       # Number of ticks from beginning of simulation (restored from checkpoints and never reset)
sim_freq                                 1000000000000                       # Frequency of simulated ticks
host_inst_rate                                 138975                       # Simulator instruction rate (inst/s)
host_op_rate                                   175106                       # Simulator op (including micro ops) rate (op/s)
host_tick_rate                                6302378                       # Simulator tick rate (ticks/s)
host_mem_usage                               16914948                       # Number of bytes of host memory used
host_seconds                                 15843.68                       # Real time elapsed on the host
sim_insts                                  2201870470                       # Number of instructions simulated
sim_ops                                    2774325777                       # Number of ops (including micro ops) simulated
system.physmem.bytes_read::switch_cpus0.inst         1664                       # Number of bytes read from this memory
system.physmem.bytes_read::switch_cpus0.data      1102976                       # Number of bytes read from this memory
system.physmem.bytes_read::switch_cpus1.inst         1920                       # Number of bytes read from this memory
system.physmem.bytes_read::switch_cpus1.data       253440                       # Number of bytes read from this memory
system.physmem.bytes_read::total              1360000                       # Number of bytes read from this memory
system.physmem.bytes_inst_read::switch_cpus0.inst         1664                       # Number of instructions bytes read from this memory
system.physmem.bytes_inst_read::switch_cpus1.inst         1920                       # Number of instructions bytes read from this memory
system.physmem.bytes_inst_read::total            3584                       # Number of instructions bytes read from this memory
system.physmem.bytes_written::writebacks      1000192                       # Number of bytes written to this memory
system.physmem.bytes_written::total           1000192                       # Number of bytes written to this memory
system.physmem.num_reads::switch_cpus0.inst           13                       # Number of read requests responded to by this memory
system.physmem.num_reads::switch_cpus0.data         8617                       # Number of read requests responded to by this memory
system.physmem.num_reads::switch_cpus1.inst           15                       # Number of read requests responded to by this memory
system.physmem.num_reads::switch_cpus1.data         1980                       # Number of read requests responded to by this memory
system.physmem.num_reads::total                 10625                       # Number of read requests responded to by this memory
system.physmem.num_writes::writebacks            7814                       # Number of write requests responded to by this memory
system.physmem.num_writes::functional               0                       # Number of write requests responded to by this memory
system.physmem.num_writes::interrupt                0                       # Number of write requests responded to by this memory
system.physmem.num_writes::switch_cpus0.dtb.walker            0                       # Number of write requests responded to by this memory
system.physmem.num_writes::switch_cpus0.itb.walker            0                       # Number of write requests responded to by this memory
system.physmem.num_writes::switch_cpus0.inst            0                       # Number of write requests responded to by this memory
system.physmem.num_writes::switch_cpus0.data            0                       # Number of write requests responded to by this memory
system.physmem.num_writes::switch_cpus1.dtb.walker            0                       # Number of write requests responded to by this memory
system.physmem.num_writes::switch_cpus1.itb.walker            0                       # Number of write requests responded to by this memory
system.physmem.num_writes::switch_cpus1.inst            0                       # Number of write requests responded to by this memory
system.physmem.num_writes::switch_cpus1.data            0                       # Number of write requests responded to by this memory
system.physmem.num_writes::cpu0.dtb.walker            0                       # Number of write requests responded to by this memory
system.physmem.num_writes::cpu0.itb.walker            0                       # Number of write requests responded to by this memory
system.physmem.num_writes::cpu0.inst                0                       # Number of write requests responded to by this memory
system.physmem.num_writes::cpu0.data                0                       # Number of write requests responded to by this memory
system.physmem.num_writes::cpu1.dtb.walker            0                       # Number of write requests responded to by this memory
system.physmem.num_writes::cpu1.itb.walker            0                       # Number of write requests responded to by this memory
system.physmem.num_writes::cpu1.inst                0                       # Number of write requests responded to by this memory
system.physmem.num_writes::cpu1.data                0                       # Number of write requests responded to by this memory
system.physmem.num_writes::total                 7814                       # Number of write requests responded to by this memory
system.physmem.bw_read::switch_cpus0.inst        16665                       # Total read bandwidth from this memory (bytes/s)
system.physmem.bw_read::switch_cpus0.data     11046013                       # Total read bandwidth from this memory (bytes/s)
system.physmem.bw_read::switch_cpus1.inst        19228                       # Total read bandwidth from this memory (bytes/s)
system.physmem.bw_read::switch_cpus1.data      2538135                       # Total read bandwidth from this memory (bytes/s)
system.physmem.bw_read::total                13620040                       # Total read bandwidth from this memory (bytes/s)
system.physmem.bw_inst_read::switch_cpus0.inst        16665                       # Instruction read bandwidth from this memory (bytes/s)
system.physmem.bw_inst_read::switch_cpus1.inst        19228                       # Instruction read bandwidth from this memory (bytes/s)
system.physmem.bw_inst_read::total              35893                       # Instruction read bandwidth from this memory (bytes/s)
system.physmem.bw_write::writebacks          10016658                       # Write bandwidth from this memory (bytes/s)
system.physmem.bw_write::total               10016658                       # Write bandwidth from this memory (bytes/s)
system.physmem.bw_total::writebacks          10016658                       # Total bandwidth to/from this memory (bytes/s)
system.physmem.bw_total::switch_cpus0.inst        16665                       # Total bandwidth to/from this memory (bytes/s)
system.physmem.bw_total::switch_cpus0.data     11046013                       # Total bandwidth to/from this memory (bytes/s)
system.physmem.bw_total::switch_cpus1.inst        19228                       # Total bandwidth to/from this memory (bytes/s)
system.physmem.bw_total::switch_cpus1.data      2538135                       # Total bandwidth to/from this memory (bytes/s)
system.physmem.bw_total::total               23636699                       # Total bandwidth to/from this memory (bytes/s)
system.switch_cpus0.dtb.inst_hits                   0                       # ITB inst hits
system.switch_cpus0.dtb.inst_misses                 0                       # ITB inst misses
system.switch_cpus0.dtb.read_hits                   0                       # DTB read hits
system.switch_cpus0.dtb.read_misses                 0                       # DTB read misses
system.switch_cpus0.dtb.write_hits                  0                       # DTB write hits
system.switch_cpus0.dtb.write_misses                0                       # DTB write misses
system.switch_cpus0.dtb.flush_tlb                   0                       # Number of times complete TLB was flushed
system.switch_cpus0.dtb.flush_tlb_mva               0                       # Number of times TLB was flushed by MVA
system.switch_cpus0.dtb.flush_tlb_mva_asid            0                       # Number of times TLB was flushed by MVA & ASID
system.switch_cpus0.dtb.flush_tlb_asid              0                       # Number of times TLB was flushed by ASID
system.switch_cpus0.dtb.flush_entries               0                       # Number of entries that have been flushed from TLB
system.switch_cpus0.dtb.align_faults                0                       # Number of TLB faults due to alignment restrictions
system.switch_cpus0.dtb.prefetch_faults             0                       # Number of TLB faults due to prefetch
system.switch_cpus0.dtb.domain_faults               0                       # Number of TLB faults due to domain restrictions
system.switch_cpus0.dtb.perms_faults                0                       # Number of TLB faults due to permissions restrictions
system.switch_cpus0.dtb.read_accesses               0                       # DTB read accesses
system.switch_cpus0.dtb.write_accesses              0                       # DTB write accesses
system.switch_cpus0.dtb.inst_accesses               0                       # ITB inst accesses
system.switch_cpus0.dtb.hits                        0                       # DTB hits
system.switch_cpus0.dtb.misses                      0                       # DTB misses
system.switch_cpus0.dtb.accesses                    0                       # DTB accesses
system.switch_cpus0.itb.inst_hits                   0                       # ITB inst hits
system.switch_cpus0.itb.inst_misses                 0                       # ITB inst misses
system.switch_cpus0.itb.read_hits                   0                       # DTB read hits
system.switch_cpus0.itb.read_misses                 0                       # DTB read misses
system.switch_cpus0.itb.write_hits                  0                       # DTB write hits
system.switch_cpus0.itb.write_misses                0                       # DTB write misses
system.switch_cpus0.itb.flush_tlb                   0                       # Number of times complete TLB was flushed
system.switch_cpus0.itb.flush_tlb_mva               0                       # Number of times TLB was flushed by MVA
system.switch_cpus0.itb.flush_tlb_mva_asid            0                       # Number of times TLB was flushed by MVA & ASID
system.switch_cpus0.itb.flush_tlb_asid              0                       # Number of times TLB was flushed by ASID
system.switch_cpus0.itb.flush_entries               0                       # Number of entries that have been flushed from TLB
system.switch_cpus0.itb.align_faults                0                       # Number of TLB faults due to alignment restrictions
system.switch_cpus0.itb.prefetch_faults             0                       # Number of TLB faults due to prefetch
system.switch_cpus0.itb.domain_faults               0                       # Number of TLB faults due to domain restrictions
system.switch_cpus0.itb.perms_faults                0                       # Number of TLB faults due to permissions restrictions
system.switch_cpus0.itb.read_accesses               0                       # DTB read accesses
system.switch_cpus0.itb.write_accesses              0                       # DTB write accesses
system.switch_cpus0.itb.inst_accesses               0                       # ITB inst accesses
system.switch_cpus0.itb.hits                        0                       # DTB hits
system.switch_cpus0.itb.misses                      0                       # DTB misses
system.switch_cpus0.itb.accesses                    0                       # DTB accesses
system.cpu0.workload.num_syscalls                   0                       # Number of system calls
system.switch_cpus0.numCycles               239455302                       # number of cpu cycles simulated
system.switch_cpus0.numWorkItemsStarted             0                       # number of work items this cpu started
system.switch_cpus0.numWorkItemsCompleted            0                       # number of work items this cpu completed
system.switch_cpus0.BPredUnit.lookups        21953267                       # Number of BP lookups
system.switch_cpus0.BPredUnit.condPredicted     17784260                       # Number of conditional branches predicted
system.switch_cpus0.BPredUnit.condIncorrect      2013574                       # Number of conditional branches incorrect
system.switch_cpus0.BPredUnit.BTBLookups      8978771                       # Number of BTB lookups
system.switch_cpus0.BPredUnit.BTBHits         8285032                       # Number of BTB hits
system.switch_cpus0.BPredUnit.BTBCorrect            0                       # Number of correct BTB predictions (this stat may not work properly.
system.switch_cpus0.BPredUnit.usedRAS         2466571                       # Number of times the RAS was used to get a target.
system.switch_cpus0.BPredUnit.RASInCorrect        91254                       # Number of incorrect RAS predictions.
system.switch_cpus0.fetch.icacheStallCycles    185646588                       # Number of cycles fetch is stalled on an Icache miss
system.switch_cpus0.fetch.Insts             121962050                       # Number of instructions fetch has processed
system.switch_cpus0.fetch.Branches           21953267                       # Number of branches that fetch encountered
system.switch_cpus0.fetch.predictedBranches     10751603                       # Number of branches that fetch has predicted taken
system.switch_cpus0.fetch.Cycles             26722010                       # Number of cycles fetch has run and was not squashing or blocked
system.switch_cpus0.fetch.SquashCycles        6172624                       # Number of cycles fetch has spent squashing
system.switch_cpus0.fetch.BlockedCycles       3905612                       # Number of cycles fetch has spent blocked
system.switch_cpus0.fetch.CacheLines         11622278                       # Number of cache lines fetched
system.switch_cpus0.fetch.IcacheSquashes      2014196                       # Number of outstanding Icache misses that were squashed
system.switch_cpus0.fetch.rateDist::samples    220386824                       # Number of instructions fetched each cycle (Total)
system.switch_cpus0.fetch.rateDist::mean     0.680119                       # Number of instructions fetched each cycle (Total)
system.switch_cpus0.fetch.rateDist::stdev     2.052786                       # Number of instructions fetched each cycle (Total)
system.switch_cpus0.fetch.rateDist::underflows            0      0.00%      0.00% # Number of instructions fetched each cycle (Total)
system.switch_cpus0.fetch.rateDist::0       193664814     87.87%     87.87% # Number of instructions fetched each cycle (Total)
system.switch_cpus0.fetch.rateDist::1         2487068      1.13%     89.00% # Number of instructions fetched each cycle (Total)
system.switch_cpus0.fetch.rateDist::2         1959710      0.89%     89.89% # Number of instructions fetched each cycle (Total)
system.switch_cpus0.fetch.rateDist::3         4591347      2.08%     91.98% # Number of instructions fetched each cycle (Total)
system.switch_cpus0.fetch.rateDist::4          996833      0.45%     92.43% # Number of instructions fetched each cycle (Total)
system.switch_cpus0.fetch.rateDist::5         1553848      0.71%     93.13% # Number of instructions fetched each cycle (Total)
system.switch_cpus0.fetch.rateDist::6         1186035      0.54%     93.67% # Number of instructions fetched each cycle (Total)
system.switch_cpus0.fetch.rateDist::7          741472      0.34%     94.01% # Number of instructions fetched each cycle (Total)
system.switch_cpus0.fetch.rateDist::8        13205697      5.99%    100.00% # Number of instructions fetched each cycle (Total)
system.switch_cpus0.fetch.rateDist::overflows            0      0.00%    100.00% # Number of instructions fetched each cycle (Total)
system.switch_cpus0.fetch.rateDist::min_value            0                       # Number of instructions fetched each cycle (Total)
system.switch_cpus0.fetch.rateDist::max_value            8                       # Number of instructions fetched each cycle (Total)
system.switch_cpus0.fetch.rateDist::total    220386824                       # Number of instructions fetched each cycle (Total)
system.switch_cpus0.fetch.branchRate         0.091680                       # Number of branch fetches per cycle
system.switch_cpus0.fetch.rate               0.509331                       # Number of inst fetches per cycle
system.switch_cpus0.decode.IdleCycles       183580500                       # Number of cycles decode is idle
system.switch_cpus0.decode.BlockedCycles      6031388                       # Number of cycles decode is blocked
system.switch_cpus0.decode.RunCycles         26617839                       # Number of cycles decode is running
system.switch_cpus0.decode.UnblockCycles        86235                       # Number of cycles decode is unblocking
system.switch_cpus0.decode.SquashCycles       4070856                       # Number of cycles decode is squashing
system.switch_cpus0.decode.BranchResolved      3784938                       # Number of times decode resolved a branch
system.switch_cpus0.decode.BranchMispred        42344                       # Number of times decode detected a branch misprediction
system.switch_cpus0.decode.DecodedInsts     149595930                       # Number of instructions handled by decode
system.switch_cpus0.decode.SquashedInsts        77880                       # Number of squashed instructions handled by decode
system.switch_cpus0.rename.SquashCycles       4070856                       # Number of cycles rename is squashing
system.switch_cpus0.rename.IdleCycles       184084454                       # Number of cycles rename is idle
system.switch_cpus0.rename.BlockCycles        1529098                       # Number of cycles rename is blocking
system.switch_cpus0.rename.serializeStallCycles      3118362                       # count of cycles rename stalled for serializing inst
system.switch_cpus0.rename.RunCycles         26169642                       # Number of cycles rename is running
system.switch_cpus0.rename.UnblockCycles      1414406                       # Number of cycles rename is unblocking
system.switch_cpus0.rename.RenamedInsts     149452446                       # Number of instructions processed by rename
system.switch_cpus0.rename.ROBFullEvents        16245                       # Number of times rename has blocked due to ROB full
system.switch_cpus0.rename.IQFullEvents        274303                       # Number of times rename has blocked due to IQ full
system.switch_cpus0.rename.LSQFullEvents       538275                       # Number of times rename has blocked due to LSQ full
system.switch_cpus0.rename.FullRegisterEvents       163002                       # Number of times there has been no free registers
system.switch_cpus0.rename.RenamedOperands    210222249                       # Number of destination operands rename has renamed
system.switch_cpus0.rename.RenameLookups    697341637                       # Number of register rename lookups that rename has made
system.switch_cpus0.rename.int_rename_lookups    697341637                       # Number of integer rename lookups
system.switch_cpus0.rename.CommittedMaps    170695495                       # Number of HB maps that are committed
system.switch_cpus0.rename.UndoneMaps        39526731                       # Number of HB maps that are undone due to squashing
system.switch_cpus0.rename.serializingInsts        38713                       # count of serializing insts renamed
system.switch_cpus0.rename.tempSerializingInsts        22172                       # count of temporary serializing insts renamed
system.switch_cpus0.rename.skidInsts          4724205                       # count of insts added to the skid buffer
system.switch_cpus0.memDep0.insertedLoads     14541476                       # Number of loads inserted to the mem dependence unit.
system.switch_cpus0.memDep0.insertedStores      7224438                       # Number of stores inserted to the mem dependence unit.
system.switch_cpus0.memDep0.conflictingLoads       133712                       # Number of conflicting loads.
system.switch_cpus0.memDep0.conflictingStores      1600383                       # Number of conflicting stores.
system.switch_cpus0.iq.iqInstsAdded         148381255                       # Number of instructions added to the IQ (excludes non-spec)
system.switch_cpus0.iq.iqNonSpecInstsAdded        38695                       # Number of non-speculative instructions added to the IQ
system.switch_cpus0.iq.iqInstsIssued        139355796                       # Number of instructions issued
system.switch_cpus0.iq.iqSquashedInstsIssued       142566                       # Number of squashed instructions issued
system.switch_cpus0.iq.iqSquashedInstsExamined     24813925                       # Number of squashed instructions iterated over during squash; mainly for profiling
system.switch_cpus0.iq.iqSquashedOperandsExamined     51622069                       # Number of squashed operands that are examined and possibly removed from graph
system.switch_cpus0.iq.iqSquashedNonSpecRemoved         5627                       # Number of squashed non-spec instructions that were removed
system.switch_cpus0.iq.issued_per_cycle::samples    220386824                       # Number of insts issued each cycle
system.switch_cpus0.iq.issued_per_cycle::mean     0.632324                       # Number of insts issued each cycle
system.switch_cpus0.iq.issued_per_cycle::stdev     1.303393                       # Number of insts issued each cycle
system.switch_cpus0.iq.issued_per_cycle::underflows            0      0.00%      0.00% # Number of insts issued each cycle
system.switch_cpus0.iq.issued_per_cycle::0    160327263     72.75%     72.75% # Number of insts issued each cycle
system.switch_cpus0.iq.issued_per_cycle::1     25729203     11.67%     84.42% # Number of insts issued each cycle
system.switch_cpus0.iq.issued_per_cycle::2     12484519      5.66%     90.09% # Number of insts issued each cycle
system.switch_cpus0.iq.issued_per_cycle::3      8332962      3.78%     93.87% # Number of insts issued each cycle
system.switch_cpus0.iq.issued_per_cycle::4      7730875      3.51%     97.38% # Number of insts issued each cycle
system.switch_cpus0.iq.issued_per_cycle::5      2594418      1.18%     98.55% # Number of insts issued each cycle
system.switch_cpus0.iq.issued_per_cycle::6      2679180      1.22%     99.77% # Number of insts issued each cycle
system.switch_cpus0.iq.issued_per_cycle::7       379233      0.17%     99.94% # Number of insts issued each cycle
system.switch_cpus0.iq.issued_per_cycle::8       129171      0.06%    100.00% # Number of insts issued each cycle
system.switch_cpus0.iq.issued_per_cycle::overflows            0      0.00%    100.00% # Number of insts issued each cycle
system.switch_cpus0.iq.issued_per_cycle::min_value            0                       # Number of insts issued each cycle
system.switch_cpus0.iq.issued_per_cycle::max_value            8                       # Number of insts issued each cycle
system.switch_cpus0.iq.issued_per_cycle::total    220386824                       # Number of insts issued each cycle
system.switch_cpus0.iq.fu_full::No_OpClass            0      0.00%      0.00% # attempts to use FU when none available
system.switch_cpus0.iq.fu_full::IntAlu         400150     58.84%     58.84% # attempts to use FU when none available
system.switch_cpus0.iq.fu_full::IntMult             0      0.00%     58.84% # attempts to use FU when none available
system.switch_cpus0.iq.fu_full::IntDiv              0      0.00%     58.84% # attempts to use FU when none available
system.switch_cpus0.iq.fu_full::FloatAdd            0      0.00%     58.84% # attempts to use FU when none available
system.switch_cpus0.iq.fu_full::FloatCmp            0      0.00%     58.84% # attempts to use FU when none available
system.switch_cpus0.iq.fu_full::FloatCvt            0      0.00%     58.84% # attempts to use FU when none available
system.switch_cpus0.iq.fu_full::FloatMult            0      0.00%     58.84% # attempts to use FU when none available
system.switch_cpus0.iq.fu_full::FloatDiv            0      0.00%     58.84% # attempts to use FU when none available
system.switch_cpus0.iq.fu_full::FloatSqrt            0      0.00%     58.84% # attempts to use FU when none available
system.switch_cpus0.iq.fu_full::SimdAdd             0      0.00%     58.84% # attempts to use FU when none available
system.switch_cpus0.iq.fu_full::SimdAddAcc            0      0.00%     58.84% # attempts to use FU when none available
system.switch_cpus0.iq.fu_full::SimdAlu             0      0.00%     58.84% # attempts to use FU when none available
system.switch_cpus0.iq.fu_full::SimdCmp             0      0.00%     58.84% # attempts to use FU when none available
system.switch_cpus0.iq.fu_full::SimdCvt             0      0.00%     58.84% # attempts to use FU when none available
system.switch_cpus0.iq.fu_full::SimdMisc            0      0.00%     58.84% # attempts to use FU when none available
system.switch_cpus0.iq.fu_full::SimdMult            0      0.00%     58.84% # attempts to use FU when none available
system.switch_cpus0.iq.fu_full::SimdMultAcc            0      0.00%     58.84% # attempts to use FU when none available
system.switch_cpus0.iq.fu_full::SimdShift            0      0.00%     58.84% # attempts to use FU when none available
system.switch_cpus0.iq.fu_full::SimdShiftAcc            0      0.00%     58.84% # attempts to use FU when none available
system.switch_cpus0.iq.fu_full::SimdSqrt            0      0.00%     58.84% # attempts to use FU when none available
system.switch_cpus0.iq.fu_full::SimdFloatAdd            0      0.00%     58.84% # attempts to use FU when none available
system.switch_cpus0.iq.fu_full::SimdFloatAlu            0      0.00%     58.84% # attempts to use FU when none available
system.switch_cpus0.iq.fu_full::SimdFloatCmp            0      0.00%     58.84% # attempts to use FU when none available
system.switch_cpus0.iq.fu_full::SimdFloatCvt            0      0.00%     58.84% # attempts to use FU when none available
system.switch_cpus0.iq.fu_full::SimdFloatDiv            0      0.00%     58.84% # attempts to use FU when none available
system.switch_cpus0.iq.fu_full::SimdFloatMisc            0      0.00%     58.84% # attempts to use FU when none available
system.switch_cpus0.iq.fu_full::SimdFloatMult            0      0.00%     58.84% # attempts to use FU when none available
system.switch_cpus0.iq.fu_full::SimdFloatMultAcc            0      0.00%     58.84% # attempts to use FU when none available
system.switch_cpus0.iq.fu_full::SimdFloatSqrt            0      0.00%     58.84% # attempts to use FU when none available
system.switch_cpus0.iq.fu_full::MemRead        140173     20.61%     79.45% # attempts to use FU when none available
system.switch_cpus0.iq.fu_full::MemWrite       139768     20.55%    100.00% # attempts to use FU when none available
system.switch_cpus0.iq.fu_full::IprAccess            0      0.00%    100.00% # attempts to use FU when none available
system.switch_cpus0.iq.fu_full::InstPrefetch            0      0.00%    100.00% # attempts to use FU when none available
system.switch_cpus0.iq.FU_type_0::No_OpClass            0      0.00%      0.00% # Type of FU issued
system.switch_cpus0.iq.FU_type_0::IntAlu    117040085     83.99%     83.99% # Type of FU issued
system.switch_cpus0.iq.FU_type_0::IntMult      2112356      1.52%     85.50% # Type of FU issued
system.switch_cpus0.iq.FU_type_0::IntDiv            0      0.00%     85.50% # Type of FU issued
system.switch_cpus0.iq.FU_type_0::FloatAdd            0      0.00%     85.50% # Type of FU issued
system.switch_cpus0.iq.FU_type_0::FloatCmp            0      0.00%     85.50% # Type of FU issued
system.switch_cpus0.iq.FU_type_0::FloatCvt            0      0.00%     85.50% # Type of FU issued
system.switch_cpus0.iq.FU_type_0::FloatMult            0      0.00%     85.50% # Type of FU issued
system.switch_cpus0.iq.FU_type_0::FloatDiv            0      0.00%     85.50% # Type of FU issued
system.switch_cpus0.iq.FU_type_0::FloatSqrt            0      0.00%     85.50% # Type of FU issued
system.switch_cpus0.iq.FU_type_0::SimdAdd            0      0.00%     85.50% # Type of FU issued
system.switch_cpus0.iq.FU_type_0::SimdAddAcc            0      0.00%     85.50% # Type of FU issued
system.switch_cpus0.iq.FU_type_0::SimdAlu            0      0.00%     85.50% # Type of FU issued
system.switch_cpus0.iq.FU_type_0::SimdCmp            0      0.00%     85.50% # Type of FU issued
system.switch_cpus0.iq.FU_type_0::SimdCvt            0      0.00%     85.50% # Type of FU issued
system.switch_cpus0.iq.FU_type_0::SimdMisc            0      0.00%     85.50% # Type of FU issued
system.switch_cpus0.iq.FU_type_0::SimdMult            0      0.00%     85.50% # Type of FU issued
system.switch_cpus0.iq.FU_type_0::SimdMultAcc            0      0.00%     85.50% # Type of FU issued
system.switch_cpus0.iq.FU_type_0::SimdShift            0      0.00%     85.50% # Type of FU issued
system.switch_cpus0.iq.FU_type_0::SimdShiftAcc            0      0.00%     85.50% # Type of FU issued
system.switch_cpus0.iq.FU_type_0::SimdSqrt            0      0.00%     85.50% # Type of FU issued
system.switch_cpus0.iq.FU_type_0::SimdFloatAdd            0      0.00%     85.50% # Type of FU issued
system.switch_cpus0.iq.FU_type_0::SimdFloatAlu            0      0.00%     85.50% # Type of FU issued
system.switch_cpus0.iq.FU_type_0::SimdFloatCmp            0      0.00%     85.50% # Type of FU issued
system.switch_cpus0.iq.FU_type_0::SimdFloatCvt            0      0.00%     85.50% # Type of FU issued
system.switch_cpus0.iq.FU_type_0::SimdFloatDiv            0      0.00%     85.50% # Type of FU issued
system.switch_cpus0.iq.FU_type_0::SimdFloatMisc        16534      0.01%     85.51% # Type of FU issued
system.switch_cpus0.iq.FU_type_0::SimdFloatMult            0      0.00%     85.51% # Type of FU issued
system.switch_cpus0.iq.FU_type_0::SimdFloatMultAcc            0      0.00%     85.51% # Type of FU issued
system.switch_cpus0.iq.FU_type_0::SimdFloatSqrt            0      0.00%     85.51% # Type of FU issued
system.switch_cpus0.iq.FU_type_0::MemRead     13020655      9.34%     94.86% # Type of FU issued
system.switch_cpus0.iq.FU_type_0::MemWrite      7166166      5.14%    100.00% # Type of FU issued
system.switch_cpus0.iq.FU_type_0::IprAccess            0      0.00%    100.00% # Type of FU issued
system.switch_cpus0.iq.FU_type_0::InstPrefetch            0      0.00%    100.00% # Type of FU issued
system.switch_cpus0.iq.FU_type_0::total     139355796                       # Type of FU issued
system.switch_cpus0.iq.rate                  0.581970                       # Inst issue rate
system.switch_cpus0.iq.fu_busy_cnt             680091                       # FU busy when requested
system.switch_cpus0.iq.fu_busy_rate          0.004880                       # FU busy rate (busy events/executed inst)
system.switch_cpus0.iq.int_inst_queue_reads    499921071                       # Number of integer instruction queue reads
system.switch_cpus0.iq.int_inst_queue_writes    173234348                       # Number of integer instruction queue writes
system.switch_cpus0.iq.int_inst_queue_wakeup_accesses    135787054                       # Number of integer instruction queue wakeup accesses
system.switch_cpus0.iq.fp_inst_queue_reads            0                       # Number of floating instruction queue reads
system.switch_cpus0.iq.fp_inst_queue_writes            0                       # Number of floating instruction queue writes
system.switch_cpus0.iq.fp_inst_queue_wakeup_accesses            0                       # Number of floating instruction queue wakeup accesses
system.switch_cpus0.iq.int_alu_accesses     140035887                       # Number of integer alu accesses
system.switch_cpus0.iq.fp_alu_accesses              0                       # Number of floating point alu accesses
system.switch_cpus0.iew.lsq.thread0.forwLoads       348649                       # Number of loads that had data forwarded from stores
system.switch_cpus0.iew.lsq.thread0.invAddrLoads            0                       # Number of loads ignored due to an invalid address
system.switch_cpus0.iew.lsq.thread0.squashedLoads      3307539                       # Number of loads squashed
system.switch_cpus0.iew.lsq.thread0.ignoredResponses         1021                       # Number of memory responses ignored because the instruction is squashed
system.switch_cpus0.iew.lsq.thread0.memOrderViolation          473                       # Number of memory ordering violations
system.switch_cpus0.iew.lsq.thread0.squashedStores       198712                       # Number of stores squashed
system.switch_cpus0.iew.lsq.thread0.invAddrSwpfs            0                       # Number of software prefetches ignored due to an invalid address
system.switch_cpus0.iew.lsq.thread0.blockedLoads            0                       # Number of blocked loads due to partial load-store forwarding
system.switch_cpus0.iew.lsq.thread0.rescheduledLoads            0                       # Number of loads that were rescheduled
system.switch_cpus0.iew.lsq.thread0.cacheBlocked            0                       # Number of times an access to memory failed due to the cache being blocked
system.switch_cpus0.iew.iewIdleCycles               0                       # Number of cycles IEW is idle
system.switch_cpus0.iew.iewSquashCycles       4070856                       # Number of cycles IEW is squashing
system.switch_cpus0.iew.iewBlockCycles        1021230                       # Number of cycles IEW is blocking
system.switch_cpus0.iew.iewUnblockCycles        96064                       # Number of cycles IEW is unblocking
system.switch_cpus0.iew.iewDispatchedInsts    148419950                       # Number of instructions dispatched to IQ
system.switch_cpus0.iew.iewDispSquashedInsts         9812                       # Number of squashed instructions skipped by dispatch
system.switch_cpus0.iew.iewDispLoadInsts     14541476                       # Number of dispatched load instructions
system.switch_cpus0.iew.iewDispStoreInsts      7224438                       # Number of dispatched store instructions
system.switch_cpus0.iew.iewDispNonSpecInsts        22161                       # Number of dispatched non-speculative instructions
system.switch_cpus0.iew.iewIQFullEvents         81558                       # Number of times the IQ has become full, causing a stall
system.switch_cpus0.iew.iewLSQFullEvents            1                       # Number of times the LSQ has become full, causing a stall
system.switch_cpus0.iew.memOrderViolationEvents          473                       # Number of memory order violations
system.switch_cpus0.iew.predictedTakenIncorrect      1097072                       # Number of branches that were predicted taken incorrectly
system.switch_cpus0.iew.predictedNotTakenIncorrect      1141798                       # Number of branches that were predicted not taken incorrectly
system.switch_cpus0.iew.branchMispredicts      2238870                       # Number of branch mispredicts detected at execute
system.switch_cpus0.iew.iewExecutedInsts    136819143                       # Number of executed instructions
system.switch_cpus0.iew.iewExecLoadInsts     12571363                       # Number of load instructions executed
system.switch_cpus0.iew.iewExecSquashedInsts      2536651                       # Number of squashed instructions skipped in execute
system.switch_cpus0.iew.exec_swp                    0                       # number of swp insts executed
system.switch_cpus0.iew.exec_nop                    0                       # number of nop insts executed
system.switch_cpus0.iew.exec_refs            19736263                       # number of memory reference insts executed
system.switch_cpus0.iew.exec_branches        19397764                       # Number of branches executed
system.switch_cpus0.iew.exec_stores           7164900                       # Number of stores executed
system.switch_cpus0.iew.exec_rate            0.571377                       # Inst execution rate
system.switch_cpus0.iew.wb_sent             135787946                       # cumulative count of insts sent to commit
system.switch_cpus0.iew.wb_count            135787054                       # cumulative count of insts written-back
system.switch_cpus0.iew.wb_producers         80411394                       # num instructions producing a value
system.switch_cpus0.iew.wb_consumers        221957488                       # num instructions consuming a value
system.switch_cpus0.iew.wb_penalized                0                       # number of instrctions required to write to 'other' IQ
system.switch_cpus0.iew.wb_rate              0.567066                       # insts written-back per cycle
system.switch_cpus0.iew.wb_fanout            0.362283                       # average fanout of values written-back
system.switch_cpus0.iew.wb_penalized_rate            0                       # fraction of instructions written-back that wrote to 'other' IQ
system.switch_cpus0.commit.commitCommittedInsts    100000004                       # The number of committed instructions
system.switch_cpus0.commit.commitCommittedOps    122809383                       # The number of committed instructions
system.switch_cpus0.commit.commitSquashedInsts     25611867                       # The number of squashed insts skipped by commit
system.switch_cpus0.commit.commitNonSpecStalls        33068                       # The number of times commit has been forced to stall to communicate backwards
system.switch_cpus0.commit.branchMispredicts      2017934                       # The number of times a branch was mispredicted
system.switch_cpus0.commit.committed_per_cycle::samples    216315968                       # Number of insts commited each cycle
system.switch_cpus0.commit.committed_per_cycle::mean     0.567731                       # Number of insts commited each cycle
system.switch_cpus0.commit.committed_per_cycle::stdev     1.372135                       # Number of insts commited each cycle
system.switch_cpus0.commit.committed_per_cycle::underflows            0      0.00%      0.00% # Number of insts commited each cycle
system.switch_cpus0.commit.committed_per_cycle::0    164732950     76.15%     76.15% # Number of insts commited each cycle
system.switch_cpus0.commit.committed_per_cycle::1     24280971     11.22%     87.38% # Number of insts commited each cycle
system.switch_cpus0.commit.committed_per_cycle::2     10605167      4.90%     92.28% # Number of insts commited each cycle
system.switch_cpus0.commit.committed_per_cycle::3      6014136      2.78%     95.06% # Number of insts commited each cycle
system.switch_cpus0.commit.committed_per_cycle::4      4362134      2.02%     97.08% # Number of insts commited each cycle
system.switch_cpus0.commit.committed_per_cycle::5      1711231      0.79%     97.87% # Number of insts commited each cycle
system.switch_cpus0.commit.committed_per_cycle::6      1324632      0.61%     98.48% # Number of insts commited each cycle
system.switch_cpus0.commit.committed_per_cycle::7       954789      0.44%     98.92% # Number of insts commited each cycle
system.switch_cpus0.commit.committed_per_cycle::8      2329958      1.08%    100.00% # Number of insts commited each cycle
system.switch_cpus0.commit.committed_per_cycle::overflows            0      0.00%    100.00% # Number of insts commited each cycle
system.switch_cpus0.commit.committed_per_cycle::min_value            0                       # Number of insts commited each cycle
system.switch_cpus0.commit.committed_per_cycle::max_value            8                       # Number of insts commited each cycle
system.switch_cpus0.commit.committed_per_cycle::total    216315968                       # Number of insts commited each cycle
system.switch_cpus0.commit.committedInsts    100000004                       # Number of instructions committed
system.switch_cpus0.commit.committedOps     122809383                       # Number of ops (including micro ops) committed
system.switch_cpus0.commit.swp_count                0                       # Number of s/w prefetches committed
system.switch_cpus0.commit.refs              18259663                       # Number of memory references committed
system.switch_cpus0.commit.loads             11233937                       # Number of loads committed
system.switch_cpus0.commit.membars              16534                       # Number of memory barriers committed
system.switch_cpus0.commit.branches          17645452                       # Number of branches committed
system.switch_cpus0.commit.fp_insts                 0                       # Number of committed floating point instructions.
system.switch_cpus0.commit.int_insts        110655559                       # Number of committed integer instructions.
system.switch_cpus0.commit.function_calls      2500186                       # Number of function calls committed.
system.switch_cpus0.commit.bw_lim_events      2329958                       # number cycles where commit BW limit reached
system.switch_cpus0.commit.bw_limited               0                       # number of insts not committed due to BW limits
system.switch_cpus0.rob.rob_reads           362407260                       # The number of ROB reads
system.switch_cpus0.rob.rob_writes          300913447                       # The number of ROB writes
system.switch_cpus0.timesIdled                3013551                       # Number of times that the entire CPU went into an idle state and unscheduled itself
system.switch_cpus0.idleCycles               19068478                       # Total number of cycles that the CPU has spent unscheduled due to idling
system.switch_cpus0.committedInsts          100000004                       # Number of Instructions Simulated
system.switch_cpus0.committedOps            122809383                       # Number of Ops (including micro ops) Simulated
system.switch_cpus0.committedInsts_total    100000004                       # Number of Instructions Simulated
system.switch_cpus0.cpi                      2.394553                       # CPI: Cycles Per Instruction
system.switch_cpus0.cpi_total                2.394553                       # CPI: Total CPI of All Threads
system.switch_cpus0.ipc                      0.417614                       # IPC: Instructions Per Cycle
system.switch_cpus0.ipc_total                0.417614                       # IPC: Total IPC of All Threads
system.switch_cpus0.int_regfile_reads       616260231                       # number of integer regfile reads
system.switch_cpus0.int_regfile_writes      189105255                       # number of integer regfile writes
system.switch_cpus0.misc_regfile_reads      138142135                       # number of misc regfile reads
system.switch_cpus0.misc_regfile_writes         33068                       # number of misc regfile writes
system.switch_cpus1.dtb.inst_hits                   0                       # ITB inst hits
system.switch_cpus1.dtb.inst_misses                 0                       # ITB inst misses
system.switch_cpus1.dtb.read_hits                   0                       # DTB read hits
system.switch_cpus1.dtb.read_misses                 0                       # DTB read misses
system.switch_cpus1.dtb.write_hits                  0                       # DTB write hits
system.switch_cpus1.dtb.write_misses                0                       # DTB write misses
system.switch_cpus1.dtb.flush_tlb                   0                       # Number of times complete TLB was flushed
system.switch_cpus1.dtb.flush_tlb_mva               0                       # Number of times TLB was flushed by MVA
system.switch_cpus1.dtb.flush_tlb_mva_asid            0                       # Number of times TLB was flushed by MVA & ASID
system.switch_cpus1.dtb.flush_tlb_asid              0                       # Number of times TLB was flushed by ASID
system.switch_cpus1.dtb.flush_entries               0                       # Number of entries that have been flushed from TLB
system.switch_cpus1.dtb.align_faults                0                       # Number of TLB faults due to alignment restrictions
system.switch_cpus1.dtb.prefetch_faults             0                       # Number of TLB faults due to prefetch
system.switch_cpus1.dtb.domain_faults               0                       # Number of TLB faults due to domain restrictions
system.switch_cpus1.dtb.perms_faults                0                       # Number of TLB faults due to permissions restrictions
system.switch_cpus1.dtb.read_accesses               0                       # DTB read accesses
system.switch_cpus1.dtb.write_accesses              0                       # DTB write accesses
system.switch_cpus1.dtb.inst_accesses               0                       # ITB inst accesses
system.switch_cpus1.dtb.hits                        0                       # DTB hits
system.switch_cpus1.dtb.misses                      0                       # DTB misses
system.switch_cpus1.dtb.accesses                    0                       # DTB accesses
system.switch_cpus1.itb.inst_hits                   0                       # ITB inst hits
system.switch_cpus1.itb.inst_misses                 0                       # ITB inst misses
system.switch_cpus1.itb.read_hits                   0                       # DTB read hits
system.switch_cpus1.itb.read_misses                 0                       # DTB read misses
system.switch_cpus1.itb.write_hits                  0                       # DTB write hits
system.switch_cpus1.itb.write_misses                0                       # DTB write misses
system.switch_cpus1.itb.flush_tlb                   0                       # Number of times complete TLB was flushed
system.switch_cpus1.itb.flush_tlb_mva               0                       # Number of times TLB was flushed by MVA
system.switch_cpus1.itb.flush_tlb_mva_asid            0                       # Number of times TLB was flushed by MVA & ASID
system.switch_cpus1.itb.flush_tlb_asid              0                       # Number of times TLB was flushed by ASID
system.switch_cpus1.itb.flush_entries               0                       # Number of entries that have been flushed from TLB
system.switch_cpus1.itb.align_faults                0                       # Number of TLB faults due to alignment restrictions
system.switch_cpus1.itb.prefetch_faults             0                       # Number of TLB faults due to prefetch
system.switch_cpus1.itb.domain_faults               0                       # Number of TLB faults due to domain restrictions
system.switch_cpus1.itb.perms_faults                0                       # Number of TLB faults due to permissions restrictions
system.switch_cpus1.itb.read_accesses               0                       # DTB read accesses
system.switch_cpus1.itb.write_accesses              0                       # DTB write accesses
system.switch_cpus1.itb.inst_accesses               0                       # ITB inst accesses
system.switch_cpus1.itb.hits                        0                       # DTB hits
system.switch_cpus1.itb.misses                      0                       # DTB misses
system.switch_cpus1.itb.accesses                    0                       # DTB accesses
system.cpu1.workload.num_syscalls                   0                       # Number of system calls
system.switch_cpus1.numCycles               239455302                       # number of cpu cycles simulated
system.switch_cpus1.numWorkItemsStarted             0                       # number of work items this cpu started
system.switch_cpus1.numWorkItemsCompleted            0                       # number of work items this cpu completed
system.switch_cpus1.BPredUnit.lookups        21515116                       # Number of BP lookups
system.switch_cpus1.BPredUnit.condPredicted     17657734                       # Number of conditional branches predicted
system.switch_cpus1.BPredUnit.condIncorrect      2005114                       # Number of conditional branches incorrect
system.switch_cpus1.BPredUnit.BTBLookups      8795392                       # Number of BTB lookups
system.switch_cpus1.BPredUnit.BTBHits         8451569                       # Number of BTB hits
system.switch_cpus1.BPredUnit.BTBCorrect            0                       # Number of correct BTB predictions (this stat may not work properly.
system.switch_cpus1.BPredUnit.usedRAS         2141055                       # Number of times the RAS was used to get a target.
system.switch_cpus1.BPredUnit.RASInCorrect        94064                       # Number of incorrect RAS predictions.
system.switch_cpus1.fetch.icacheStallCycles    192584845                       # Number of cycles fetch is stalled on an Icache miss
system.switch_cpus1.fetch.Insts             118113740                       # Number of instructions fetch has processed
system.switch_cpus1.fetch.Branches           21515116                       # Number of branches that fetch encountered
system.switch_cpus1.fetch.predictedBranches     10592624                       # Number of branches that fetch has predicted taken
system.switch_cpus1.fetch.Cycles             25459608                       # Number of cycles fetch has run and was not squashing or blocked
system.switch_cpus1.fetch.SquashCycles        5582462                       # Number of cycles fetch has spent squashing
system.switch_cpus1.fetch.BlockedCycles       4815689                       # Number of cycles fetch has spent blocked
system.switch_cpus1.fetch.CacheLines         11647907                       # Number of cache lines fetched
system.switch_cpus1.fetch.IcacheSquashes      1996196                       # Number of outstanding Icache misses that were squashed
system.switch_cpus1.fetch.rateDist::samples    226420111                       # Number of instructions fetched each cycle (Total)
system.switch_cpus1.fetch.rateDist::mean     0.639568                       # Number of instructions fetched each cycle (Total)
system.switch_cpus1.fetch.rateDist::stdev     2.002833                       # Number of instructions fetched each cycle (Total)
system.switch_cpus1.fetch.rateDist::underflows            0      0.00%      0.00% # Number of instructions fetched each cycle (Total)
system.switch_cpus1.fetch.rateDist::0       200960503     88.76%     88.76% # Number of instructions fetched each cycle (Total)
system.switch_cpus1.fetch.rateDist::1         1913656      0.85%     89.60% # Number of instructions fetched each cycle (Total)
system.switch_cpus1.fetch.rateDist::2         3439593      1.52%     91.12% # Number of instructions fetched each cycle (Total)
system.switch_cpus1.fetch.rateDist::3         2026269      0.89%     92.01% # Number of instructions fetched each cycle (Total)
system.switch_cpus1.fetch.rateDist::4         1663789      0.73%     92.75% # Number of instructions fetched each cycle (Total)
system.switch_cpus1.fetch.rateDist::5         1457706      0.64%     93.39% # Number of instructions fetched each cycle (Total)
system.switch_cpus1.fetch.rateDist::6          819618      0.36%     93.76% # Number of instructions fetched each cycle (Total)
system.switch_cpus1.fetch.rateDist::7         2033860      0.90%     94.65% # Number of instructions fetched each cycle (Total)
system.switch_cpus1.fetch.rateDist::8        12105117      5.35%    100.00% # Number of instructions fetched each cycle (Total)
system.switch_cpus1.fetch.rateDist::overflows            0      0.00%    100.00% # Number of instructions fetched each cycle (Total)
system.switch_cpus1.fetch.rateDist::min_value            0                       # Number of instructions fetched each cycle (Total)
system.switch_cpus1.fetch.rateDist::max_value            8                       # Number of instructions fetched each cycle (Total)
system.switch_cpus1.fetch.rateDist::total    226420111                       # Number of instructions fetched each cycle (Total)
system.switch_cpus1.fetch.branchRate         0.089850                       # Number of branch fetches per cycle
system.switch_cpus1.fetch.rate               0.493260                       # Number of inst fetches per cycle
system.switch_cpus1.decode.IdleCycles       190976749                       # Number of cycles decode is idle
system.switch_cpus1.decode.BlockedCycles      6435923                       # Number of cycles decode is blocked
system.switch_cpus1.decode.RunCycles         25385217                       # Number of cycles decode is running
system.switch_cpus1.decode.UnblockCycles        62459                       # Number of cycles decode is unblocking
system.switch_cpus1.decode.SquashCycles       3559757                       # Number of cycles decode is squashing
system.switch_cpus1.decode.BranchResolved      3533948                       # Number of times decode resolved a branch
system.switch_cpus1.decode.BranchMispred          212                       # Number of times decode detected a branch misprediction
system.switch_cpus1.decode.DecodedInsts     144749290                       # Number of instructions handled by decode
system.switch_cpus1.decode.SquashedInsts         1222                       # Number of squashed instructions handled by decode
system.switch_cpus1.rename.SquashCycles       3559757                       # Number of cycles rename is squashing
system.switch_cpus1.rename.IdleCycles       191277627                       # Number of cycles rename is idle
system.switch_cpus1.rename.BlockCycles         664165                       # Number of cycles rename is blocking
system.switch_cpus1.rename.serializeStallCycles      4886086                       # count of cycles rename stalled for serializing inst
system.switch_cpus1.rename.RunCycles         25130328                       # Number of cycles rename is running
system.switch_cpus1.rename.UnblockCycles       902143                       # Number of cycles rename is unblocking
system.switch_cpus1.rename.RenamedInsts     144696842                       # Number of instructions processed by rename
system.switch_cpus1.rename.IQFullEvents         96526                       # Number of times rename has blocked due to IQ full
system.switch_cpus1.rename.LSQFullEvents       519974                       # Number of times rename has blocked due to LSQ full
system.switch_cpus1.rename.RenamedOperands    203889085                       # Number of destination operands rename has renamed
system.switch_cpus1.rename.RenameLookups    671562484                       # Number of register rename lookups that rename has made
system.switch_cpus1.rename.int_rename_lookups    671562484                       # Number of integer rename lookups
system.switch_cpus1.rename.CommittedMaps    172993729                       # Number of HB maps that are committed
system.switch_cpus1.rename.UndoneMaps        30895348                       # Number of HB maps that are undone due to squashing
system.switch_cpus1.rename.serializingInsts        34419                       # count of serializing insts renamed
system.switch_cpus1.rename.tempSerializingInsts        17232                       # count of temporary serializing insts renamed
system.switch_cpus1.rename.skidInsts          2592136                       # count of insts added to the skid buffer
system.switch_cpus1.memDep0.insertedLoads     13398368                       # Number of loads inserted to the mem dependence unit.
system.switch_cpus1.memDep0.insertedStores      7245228                       # Number of stores inserted to the mem dependence unit.
system.switch_cpus1.memDep0.conflictingLoads        70530                       # Number of conflicting loads.
system.switch_cpus1.memDep0.conflictingStores      1651683                       # Number of conflicting stores.
system.switch_cpus1.iq.iqInstsAdded         143575088                       # Number of instructions added to the IQ (excludes non-spec)
system.switch_cpus1.iq.iqNonSpecInstsAdded        34420                       # Number of non-speculative instructions added to the IQ
system.switch_cpus1.iq.iqInstsIssued        136810779                       # Number of instructions issued
system.switch_cpus1.iq.iqSquashedInstsIssued        60400                       # Number of squashed instructions issued
system.switch_cpus1.iq.iqSquashedInstsExamined     17150279                       # Number of squashed instructions iterated over during squash; mainly for profiling
system.switch_cpus1.iq.iqSquashedOperandsExamined     35544626                       # Number of squashed operands that are examined and possibly removed from graph
system.switch_cpus1.iq.iqSquashedNonSpecRemoved           44                       # Number of squashed non-spec instructions that were removed
system.switch_cpus1.iq.issued_per_cycle::samples    226420111                       # Number of insts issued each cycle
system.switch_cpus1.iq.issued_per_cycle::mean     0.604234                       # Number of insts issued each cycle
system.switch_cpus1.iq.issued_per_cycle::stdev     1.291018                       # Number of insts issued each cycle
system.switch_cpus1.iq.issued_per_cycle::underflows            0      0.00%      0.00% # Number of insts issued each cycle
system.switch_cpus1.iq.issued_per_cycle::0    169451212     74.84%     74.84% # Number of insts issued each cycle
system.switch_cpus1.iq.issued_per_cycle::1     22665004     10.01%     84.85% # Number of insts issued each cycle
system.switch_cpus1.iq.issued_per_cycle::2     11863648      5.24%     90.09% # Number of insts issued each cycle
system.switch_cpus1.iq.issued_per_cycle::3      8379425      3.70%     93.79% # Number of insts issued each cycle
system.switch_cpus1.iq.issued_per_cycle::4      8354886      3.69%     97.48% # Number of insts issued each cycle
system.switch_cpus1.iq.issued_per_cycle::5      2978850      1.32%     98.80% # Number of insts issued each cycle
system.switch_cpus1.iq.issued_per_cycle::6      2291474      1.01%     99.81% # Number of insts issued each cycle
system.switch_cpus1.iq.issued_per_cycle::7       267330      0.12%     99.93% # Number of insts issued each cycle
system.switch_cpus1.iq.issued_per_cycle::8       168282      0.07%    100.00% # Number of insts issued each cycle
system.switch_cpus1.iq.issued_per_cycle::overflows            0      0.00%    100.00% # Number of insts issued each cycle
system.switch_cpus1.iq.issued_per_cycle::min_value            0                       # Number of insts issued each cycle
system.switch_cpus1.iq.issued_per_cycle::max_value            8                       # Number of insts issued each cycle
system.switch_cpus1.iq.issued_per_cycle::total    226420111                       # Number of insts issued each cycle
system.switch_cpus1.iq.fu_full::No_OpClass            0      0.00%      0.00% # attempts to use FU when none available
system.switch_cpus1.iq.fu_full::IntAlu          50146     13.75%     13.75% # attempts to use FU when none available
system.switch_cpus1.iq.fu_full::IntMult             0      0.00%     13.75% # attempts to use FU when none available
system.switch_cpus1.iq.fu_full::IntDiv              0      0.00%     13.75% # attempts to use FU when none available
system.switch_cpus1.iq.fu_full::FloatAdd            0      0.00%     13.75% # attempts to use FU when none available
system.switch_cpus1.iq.fu_full::FloatCmp            0      0.00%     13.75% # attempts to use FU when none available
system.switch_cpus1.iq.fu_full::FloatCvt            0      0.00%     13.75% # attempts to use FU when none available
system.switch_cpus1.iq.fu_full::FloatMult            0      0.00%     13.75% # attempts to use FU when none available
system.switch_cpus1.iq.fu_full::FloatDiv            0      0.00%     13.75% # attempts to use FU when none available
system.switch_cpus1.iq.fu_full::FloatSqrt            0      0.00%     13.75% # attempts to use FU when none available
system.switch_cpus1.iq.fu_full::SimdAdd             0      0.00%     13.75% # attempts to use FU when none available
system.switch_cpus1.iq.fu_full::SimdAddAcc            0      0.00%     13.75% # attempts to use FU when none available
system.switch_cpus1.iq.fu_full::SimdAlu             0      0.00%     13.75% # attempts to use FU when none available
system.switch_cpus1.iq.fu_full::SimdCmp             0      0.00%     13.75% # attempts to use FU when none available
system.switch_cpus1.iq.fu_full::SimdCvt             0      0.00%     13.75% # attempts to use FU when none available
system.switch_cpus1.iq.fu_full::SimdMisc            0      0.00%     13.75% # attempts to use FU when none available
system.switch_cpus1.iq.fu_full::SimdMult            0      0.00%     13.75% # attempts to use FU when none available
system.switch_cpus1.iq.fu_full::SimdMultAcc            0      0.00%     13.75% # attempts to use FU when none available
system.switch_cpus1.iq.fu_full::SimdShift            0      0.00%     13.75% # attempts to use FU when none available
system.switch_cpus1.iq.fu_full::SimdShiftAcc            0      0.00%     13.75% # attempts to use FU when none available
system.switch_cpus1.iq.fu_full::SimdSqrt            0      0.00%     13.75% # attempts to use FU when none available
system.switch_cpus1.iq.fu_full::SimdFloatAdd            0      0.00%     13.75% # attempts to use FU when none available
system.switch_cpus1.iq.fu_full::SimdFloatAlu            0      0.00%     13.75% # attempts to use FU when none available
system.switch_cpus1.iq.fu_full::SimdFloatCmp            0      0.00%     13.75% # attempts to use FU when none available
system.switch_cpus1.iq.fu_full::SimdFloatCvt            0      0.00%     13.75% # attempts to use FU when none available
system.switch_cpus1.iq.fu_full::SimdFloatDiv            0      0.00%     13.75% # attempts to use FU when none available
system.switch_cpus1.iq.fu_full::SimdFloatMisc            0      0.00%     13.75% # attempts to use FU when none available
system.switch_cpus1.iq.fu_full::SimdFloatMult            0      0.00%     13.75% # attempts to use FU when none available
system.switch_cpus1.iq.fu_full::SimdFloatMultAcc            0      0.00%     13.75% # attempts to use FU when none available
system.switch_cpus1.iq.fu_full::SimdFloatSqrt            0      0.00%     13.75% # attempts to use FU when none available
system.switch_cpus1.iq.fu_full::MemRead        162077     44.44%     58.19% # attempts to use FU when none available
system.switch_cpus1.iq.fu_full::MemWrite       152480     41.81%    100.00% # attempts to use FU when none available
system.switch_cpus1.iq.fu_full::IprAccess            0      0.00%    100.00% # attempts to use FU when none available
system.switch_cpus1.iq.fu_full::InstPrefetch            0      0.00%    100.00% # attempts to use FU when none available
system.switch_cpus1.iq.FU_type_0::No_OpClass            0      0.00%      0.00% # Type of FU issued
system.switch_cpus1.iq.FU_type_0::IntAlu    115428217     84.37%     84.37% # Type of FU issued
system.switch_cpus1.iq.FU_type_0::IntMult      1878738      1.37%     85.74% # Type of FU issued
system.switch_cpus1.iq.FU_type_0::IntDiv            0      0.00%     85.74% # Type of FU issued
system.switch_cpus1.iq.FU_type_0::FloatAdd            0      0.00%     85.74% # Type of FU issued
system.switch_cpus1.iq.FU_type_0::FloatCmp            0      0.00%     85.74% # Type of FU issued
system.switch_cpus1.iq.FU_type_0::FloatCvt            0      0.00%     85.74% # Type of FU issued
system.switch_cpus1.iq.FU_type_0::FloatMult            0      0.00%     85.74% # Type of FU issued
system.switch_cpus1.iq.FU_type_0::FloatDiv            0      0.00%     85.74% # Type of FU issued
system.switch_cpus1.iq.FU_type_0::FloatSqrt            0      0.00%     85.74% # Type of FU issued
system.switch_cpus1.iq.FU_type_0::SimdAdd            0      0.00%     85.74% # Type of FU issued
system.switch_cpus1.iq.FU_type_0::SimdAddAcc            0      0.00%     85.74% # Type of FU issued
system.switch_cpus1.iq.FU_type_0::SimdAlu            0      0.00%     85.74% # Type of FU issued
system.switch_cpus1.iq.FU_type_0::SimdCmp            0      0.00%     85.74% # Type of FU issued
system.switch_cpus1.iq.FU_type_0::SimdCvt            0      0.00%     85.74% # Type of FU issued
system.switch_cpus1.iq.FU_type_0::SimdMisc            0      0.00%     85.74% # Type of FU issued
system.switch_cpus1.iq.FU_type_0::SimdMult            0      0.00%     85.74% # Type of FU issued
system.switch_cpus1.iq.FU_type_0::SimdMultAcc            0      0.00%     85.74% # Type of FU issued
system.switch_cpus1.iq.FU_type_0::SimdShift            0      0.00%     85.74% # Type of FU issued
system.switch_cpus1.iq.FU_type_0::SimdShiftAcc            0      0.00%     85.74% # Type of FU issued
system.switch_cpus1.iq.FU_type_0::SimdSqrt            0      0.00%     85.74% # Type of FU issued
system.switch_cpus1.iq.FU_type_0::SimdFloatAdd            0      0.00%     85.74% # Type of FU issued
system.switch_cpus1.iq.FU_type_0::SimdFloatAlu            0      0.00%     85.74% # Type of FU issued
system.switch_cpus1.iq.FU_type_0::SimdFloatCmp            0      0.00%     85.74% # Type of FU issued
system.switch_cpus1.iq.FU_type_0::SimdFloatCvt            0      0.00%     85.74% # Type of FU issued
system.switch_cpus1.iq.FU_type_0::SimdFloatDiv            0      0.00%     85.74% # Type of FU issued
system.switch_cpus1.iq.FU_type_0::SimdFloatMisc        17187      0.01%     85.76% # Type of FU issued
system.switch_cpus1.iq.FU_type_0::SimdFloatMult            0      0.00%     85.76% # Type of FU issued
system.switch_cpus1.iq.FU_type_0::SimdFloatMultAcc            0      0.00%     85.76% # Type of FU issued
system.switch_cpus1.iq.FU_type_0::SimdFloatSqrt            0      0.00%     85.76% # Type of FU issued
system.switch_cpus1.iq.FU_type_0::MemRead     12259722      8.96%     94.72% # Type of FU issued
system.switch_cpus1.iq.FU_type_0::MemWrite      7226915      5.28%    100.00% # Type of FU issued
system.switch_cpus1.iq.FU_type_0::IprAccess            0      0.00%    100.00% # Type of FU issued
system.switch_cpus1.iq.FU_type_0::InstPrefetch            0      0.00%    100.00% # Type of FU issued
system.switch_cpus1.iq.FU_type_0::total     136810779                       # Type of FU issued
system.switch_cpus1.iq.rate                  0.571342                       # Inst issue rate
system.switch_cpus1.iq.fu_busy_cnt             364703                       # FU busy when requested
system.switch_cpus1.iq.fu_busy_rate          0.002666                       # FU busy rate (busy events/executed inst)
system.switch_cpus1.iq.int_inst_queue_reads    500466772                       # Number of integer instruction queue reads
system.switch_cpus1.iq.int_inst_queue_writes    160760021                       # Number of integer instruction queue writes
system.switch_cpus1.iq.int_inst_queue_wakeup_accesses    134485309                       # Number of integer instruction queue wakeup accesses
system.switch_cpus1.iq.fp_inst_queue_reads            0                       # Number of floating instruction queue reads
system.switch_cpus1.iq.fp_inst_queue_writes            0                       # Number of floating instruction queue writes
system.switch_cpus1.iq.fp_inst_queue_wakeup_accesses            0                       # Number of floating instruction queue wakeup accesses
system.switch_cpus1.iq.int_alu_accesses     137175482                       # Number of integer alu accesses
system.switch_cpus1.iq.fp_alu_accesses              0                       # Number of floating point alu accesses
system.switch_cpus1.iew.lsq.thread0.forwLoads       279077                       # Number of loads that had data forwarded from stores
system.switch_cpus1.iew.lsq.thread0.invAddrLoads            0                       # Number of loads ignored due to an invalid address
system.switch_cpus1.iew.lsq.thread0.squashedLoads      2157153                       # Number of loads squashed
system.switch_cpus1.iew.lsq.thread0.ignoredResponses            7                       # Number of memory responses ignored because the instruction is squashed
system.switch_cpus1.iew.lsq.thread0.memOrderViolation          234                       # Number of memory ordering violations
system.switch_cpus1.iew.lsq.thread0.squashedStores        96611                       # Number of stores squashed
system.switch_cpus1.iew.lsq.thread0.invAddrSwpfs            0                       # Number of software prefetches ignored due to an invalid address
system.switch_cpus1.iew.lsq.thread0.blockedLoads            0                       # Number of blocked loads due to partial load-store forwarding
system.switch_cpus1.iew.lsq.thread0.rescheduledLoads            0                       # Number of loads that were rescheduled
system.switch_cpus1.iew.lsq.thread0.cacheBlocked            0                       # Number of times an access to memory failed due to the cache being blocked
system.switch_cpus1.iew.iewIdleCycles               0                       # Number of cycles IEW is idle
system.switch_cpus1.iew.iewSquashCycles       3559757                       # Number of cycles IEW is squashing
system.switch_cpus1.iew.iewBlockCycles         464100                       # Number of cycles IEW is blocking
system.switch_cpus1.iew.iewUnblockCycles        54627                       # Number of cycles IEW is unblocking
system.switch_cpus1.iew.iewDispatchedInsts    143609508                       # Number of instructions dispatched to IQ
system.switch_cpus1.iew.iewDispSquashedInsts        82818                       # Number of squashed instructions skipped by dispatch
system.switch_cpus1.iew.iewDispLoadInsts     13398368                       # Number of dispatched load instructions
system.switch_cpus1.iew.iewDispStoreInsts      7245228                       # Number of dispatched store instructions
system.switch_cpus1.iew.iewDispNonSpecInsts        17232                       # Number of dispatched non-speculative instructions
system.switch_cpus1.iew.iewIQFullEvents         45318                       # Number of times the IQ has become full, causing a stall
system.switch_cpus1.iew.iewLSQFullEvents            0                       # Number of times the LSQ has become full, causing a stall
system.switch_cpus1.iew.memOrderViolationEvents          234                       # Number of memory order violations
system.switch_cpus1.iew.predictedTakenIncorrect      1152623                       # Number of branches that were predicted taken incorrectly
system.switch_cpus1.iew.predictedNotTakenIncorrect      1049647                       # Number of branches that were predicted not taken incorrectly
system.switch_cpus1.iew.branchMispredicts      2202270                       # Number of branch mispredicts detected at execute
system.switch_cpus1.iew.iewExecutedInsts    135262750                       # Number of executed instructions
system.switch_cpus1.iew.iewExecLoadInsts     12170151                       # Number of load instructions executed
system.switch_cpus1.iew.iewExecSquashedInsts      1548029                       # Number of squashed instructions skipped in execute
system.switch_cpus1.iew.exec_swp                    0                       # number of swp insts executed
system.switch_cpus1.iew.exec_nop                    0                       # number of nop insts executed
system.switch_cpus1.iew.exec_refs            19397062                       # number of memory reference insts executed
system.switch_cpus1.iew.exec_branches        19160202                       # Number of branches executed
system.switch_cpus1.iew.exec_stores           7226911                       # Number of stores executed
system.switch_cpus1.iew.exec_rate            0.564877                       # Inst execution rate
system.switch_cpus1.iew.wb_sent             134485369                       # cumulative count of insts sent to commit
system.switch_cpus1.iew.wb_count            134485309                       # cumulative count of insts written-back
system.switch_cpus1.iew.wb_producers         78695330                       # num instructions producing a value
system.switch_cpus1.iew.wb_consumers        214319385                       # num instructions consuming a value
system.switch_cpus1.iew.wb_penalized                0                       # number of instrctions required to write to 'other' IQ
system.switch_cpus1.iew.wb_rate              0.561630                       # insts written-back per cycle
system.switch_cpus1.iew.wb_fanout            0.367187                       # average fanout of values written-back
system.switch_cpus1.iew.wb_penalized_rate            0                       # fraction of instructions written-back that wrote to 'other' IQ
system.switch_cpus1.commit.commitCommittedInsts    100583643                       # The number of committed instructions
system.switch_cpus1.commit.commitCommittedOps    123983924                       # The number of committed instructions
system.switch_cpus1.commit.commitSquashedInsts     19625830                       # The number of squashed insts skipped by commit
system.switch_cpus1.commit.commitNonSpecStalls        34376                       # The number of times commit has been forced to stall to communicate backwards
system.switch_cpus1.commit.branchMispredicts      2022134                       # The number of times a branch was mispredicted
system.switch_cpus1.commit.committed_per_cycle::samples    222860354                       # Number of insts commited each cycle
system.switch_cpus1.commit.committed_per_cycle::mean     0.556330                       # Number of insts commited each cycle
system.switch_cpus1.commit.committed_per_cycle::stdev     1.408090                       # Number of insts commited each cycle
system.switch_cpus1.commit.committed_per_cycle::underflows            0      0.00%      0.00% # Number of insts commited each cycle
system.switch_cpus1.commit.committed_per_cycle::0    172245605     77.29%     77.29% # Number of insts commited each cycle
system.switch_cpus1.commit.committed_per_cycle::1     24685966     11.08%     88.37% # Number of insts commited each cycle
system.switch_cpus1.commit.committed_per_cycle::2      9472343      4.25%     92.62% # Number of insts commited each cycle
system.switch_cpus1.commit.committed_per_cycle::3      4988030      2.24%     94.85% # Number of insts commited each cycle
system.switch_cpus1.commit.committed_per_cycle::4      4232294      1.90%     96.75% # Number of insts commited each cycle
system.switch_cpus1.commit.committed_per_cycle::5      2014271      0.90%     97.66% # Number of insts commited each cycle
system.switch_cpus1.commit.committed_per_cycle::6       948903      0.43%     98.08% # Number of insts commited each cycle
system.switch_cpus1.commit.committed_per_cycle::7      1488303      0.67%     98.75% # Number of insts commited each cycle
system.switch_cpus1.commit.committed_per_cycle::8      2784639      1.25%    100.00% # Number of insts commited each cycle
system.switch_cpus1.commit.committed_per_cycle::overflows            0      0.00%    100.00% # Number of insts commited each cycle
system.switch_cpus1.commit.committed_per_cycle::min_value            0                       # Number of insts commited each cycle
system.switch_cpus1.commit.committed_per_cycle::max_value            8                       # Number of insts commited each cycle
system.switch_cpus1.commit.committed_per_cycle::total    222860354                       # Number of insts commited each cycle
system.switch_cpus1.commit.committedInsts    100583643                       # Number of instructions committed
system.switch_cpus1.commit.committedOps     123983924                       # Number of ops (including micro ops) committed
system.switch_cpus1.commit.swp_count                0                       # Number of s/w prefetches committed
system.switch_cpus1.commit.refs              18389832                       # Number of memory references committed
system.switch_cpus1.commit.loads             11241215                       # Number of loads committed
system.switch_cpus1.commit.membars              17188                       # Number of memory barriers committed
system.switch_cpus1.commit.branches          17988635                       # Number of branches committed
system.switch_cpus1.commit.fp_insts                 0                       # Number of committed floating point instructions.
system.switch_cpus1.commit.int_insts        111617655                       # Number of committed integer instructions.
system.switch_cpus1.commit.function_calls      2564398                       # Number of function calls committed.
system.switch_cpus1.commit.bw_lim_events      2784639                       # number cycles where commit BW limit reached
system.switch_cpus1.commit.bw_limited               0                       # number of insts not committed due to BW limits
system.switch_cpus1.rob.rob_reads           363685469                       # The number of ROB reads
system.switch_cpus1.rob.rob_writes          290779268                       # The number of ROB writes
system.switch_cpus1.timesIdled                2836563                       # Number of times that the entire CPU went into an idle state and unscheduled itself
system.switch_cpus1.idleCycles               13035191                       # Total number of cycles that the CPU has spent unscheduled due to idling
system.switch_cpus1.committedInsts          100583643                       # Number of Instructions Simulated
system.switch_cpus1.committedOps            123983924                       # Number of Ops (including micro ops) Simulated
system.switch_cpus1.committedInsts_total    100583643                       # Number of Instructions Simulated
system.switch_cpus1.cpi                      2.380658                       # CPI: Cycles Per Instruction
system.switch_cpus1.cpi_total                2.380658                       # CPI: Total CPI of All Threads
system.switch_cpus1.ipc                      0.420052                       # IPC: Instructions Per Cycle
system.switch_cpus1.ipc_total                0.420052                       # IPC: Total IPC of All Threads
system.switch_cpus1.int_regfile_reads       608227809                       # number of integer regfile reads
system.switch_cpus1.int_regfile_writes      187869177                       # number of integer regfile writes
system.switch_cpus1.misc_regfile_reads      134100057                       # number of misc regfile reads
[...]
system.cpu1.icache.ReadReq_miss_latency::total      2744306                       # number of ReadReq miss cycles
system.cpu1.icache.demand_miss_latency::switch_cpus1.inst      2744306                       # number of demand (read+write) miss cycles
system.cpu1.icache.demand_miss_latency::total      2744306                       # number of demand (read+write) miss cycles
system.cpu1.icache.overall_miss_latency::switch_cpus1.inst      2744306                       # number of overall miss cycles
system.cpu1.icache.overall_miss_latency::total      2744306                       # number of overall miss cycles
system.cpu1.icache.ReadReq_accesses::switch_cpus1.inst     11647907                       # number of ReadReq accesses(hits+misses)
system.cpu1.icache.ReadReq_accesses::total     11647907                       # number of ReadReq accesses(hits+misses)
system.cpu1.icache.demand_accesses::switch_cpus1.inst     11647907                       # number of demand (read+write) accesses
system.cpu1.icache.demand_accesses::total     11647907                       # number of demand (read+write) accesses
system.cpu1.icache.overall_accesses::switch_cpus1.inst     11647907                       # number of overall (read+write) accesses
system.cpu1.icache.overall_accesses::total     11647907                       # number of overall (read+write) accesses
system.cpu1.icache.ReadReq_miss_rate::switch_cpus1.inst     0.000001                       # miss rate for ReadReq accesses
system.cpu1.icache.ReadReq_miss_rate::total     0.000001                       # miss rate for ReadReq accesses
system.cpu1.icache.demand_miss_rate::switch_cpus1.inst     0.000001                       # miss rate for demand accesses
system.cpu1.icache.demand_miss_rate::total     0.000001                       # miss rate for demand accesses
system.cpu1.icache.overall_miss_rate::switch_cpus1.inst     0.000001                       # miss rate for overall accesses
system.cpu1.icache.overall_miss_rate::total     0.000001                       # miss rate for overall accesses
system.cpu1.icache.ReadReq_avg_miss_latency::switch_cpus1.inst 161429.764706                       # average ReadReq miss latency
system.cpu1.icache.ReadReq_avg_miss_latency::total 161429.764706                       # average ReadReq miss latency
system.cpu1.icache.demand_avg_miss_latency::switch_cpus1.inst 161429.764706                       # average overall miss latency
system.cpu1.icache.demand_avg_miss_latency::total 161429.764706                       # average overall miss latency
system.cpu1.icache.overall_avg_miss_latency::switch_cpus1.inst 161429.764706                       # average overall miss latency
system.cpu1.icache.overall_avg_miss_latency::total 161429.764706                       # average overall miss latency
system.cpu1.icache.blocked_cycles::no_mshrs            0                       # number of cycles access was blocked
system.cpu1.icache.blocked_cycles::no_targets            0                       # number of cycles access was blocked
system.cpu1.icache.blocked::no_mshrs                0                       # number of cycles access was blocked
system.cpu1.icache.blocked::no_targets              0                       # number of cycles access was blocked
system.cpu1.icache.avg_blocked_cycles::no_mshrs          nan                       # average number of cycles each access was blocked
system.cpu1.icache.avg_blocked_cycles::no_targets          nan                       # average number of cycles each access was blocked
system.cpu1.icache.fast_writes                      0                       # number of fast writes performed
system.cpu1.icache.cache_copies                     0                       # number of cache copies performed
system.cpu1.icache.ReadReq_mshr_hits::switch_cpus1.inst            2                       # number of ReadReq MSHR hits
system.cpu1.icache.ReadReq_mshr_hits::total            2                       # number of ReadReq MSHR hits
system.cpu1.icache.demand_mshr_hits::switch_cpus1.inst            2                       # number of demand (read+write) MSHR hits
system.cpu1.icache.demand_mshr_hits::total            2                       # number of demand (read+write) MSHR hits
system.cpu1.icache.overall_mshr_hits::switch_cpus1.inst            2                       # number of overall MSHR hits
system.cpu1.icache.overall_mshr_hits::total            2                       # number of overall MSHR hits
system.cpu1.icache.ReadReq_mshr_misses::switch_cpus1.inst           15                       # number of ReadReq MSHR misses
system.cpu1.icache.ReadReq_mshr_misses::total           15                       # number of ReadReq MSHR misses
system.cpu1.icache.demand_mshr_misses::switch_cpus1.inst           15                       # number of demand (read+write) MSHR misses
system.cpu1.icache.demand_mshr_misses::total           15                       # number of demand (read+write) MSHR misses
system.cpu1.icache.overall_mshr_misses::switch_cpus1.inst           15                       # number of overall MSHR misses
system.cpu1.icache.overall_mshr_misses::total           15                       # number of overall MSHR misses
system.cpu1.icache.ReadReq_mshr_miss_latency::switch_cpus1.inst      2352131                       # number of ReadReq MSHR miss cycles
system.cpu1.icache.ReadReq_mshr_miss_latency::total      2352131                       # number of ReadReq MSHR miss cycles
system.cpu1.icache.demand_mshr_miss_latency::switch_cpus1.inst      2352131                       # number of demand (read+write) MSHR miss cycles
system.cpu1.icache.demand_mshr_miss_latency::total      2352131                       # number of demand (read+write) MSHR miss cycles
system.cpu1.icache.overall_mshr_miss_latency::switch_cpus1.inst      2352131                       # number of overall MSHR miss cycles
system.cpu1.icache.overall_mshr_miss_latency::total      2352131                       # number of overall MSHR miss cycles
system.cpu1.icache.ReadReq_mshr_miss_rate::switch_cpus1.inst     0.000001                       # mshr miss rate for ReadReq accesses
system.cpu1.icache.ReadReq_mshr_miss_rate::total     0.000001                       # mshr miss rate for ReadReq accesses
system.cpu1.icache.demand_mshr_miss_rate::switch_cpus1.inst     0.000001                       # mshr miss rate for demand accesses
system.cpu1.icache.demand_mshr_miss_rate::total     0.000001                       # mshr miss rate for demand accesses
system.cpu1.icache.overall_mshr_miss_rate::switch_cpus1.inst     0.000001                       # mshr miss rate for overall accesses
system.cpu1.icache.overall_mshr_miss_rate::total     0.000001                       # mshr miss rate for overall accesses
system.cpu1.icache.ReadReq_avg_mshr_miss_latency::switch_cpus1.inst 156808.733333                       # average ReadReq mshr miss latency
system.cpu1.icache.ReadReq_avg_mshr_miss_latency::total 156808.733333                       # average ReadReq mshr miss latency
system.cpu1.icache.demand_avg_mshr_miss_latency::switch_cpus1.inst 156808.733333                       # average overall mshr miss latency
system.cpu1.icache.demand_avg_mshr_miss_latency::total 156808.733333                       # average overall mshr miss latency
system.cpu1.icache.overall_avg_mshr_miss_latency::switch_cpus1.inst 156808.733333                       # average overall mshr miss latency
system.cpu1.icache.overall_avg_mshr_miss_latency::total 156808.733333                       # average overall mshr miss latency
system.cpu1.icache.no_allocate_misses               0                       # Number of misses that were no-allocate
system.cpu1.dcache.replacements                 33074                       # number of replacements
system.cpu1.dcache.tagsinuse                      256                       # Cycle average of tags in use
system.cpu1.dcache.total_refs               162662078                       # Total number of references to valid blocks.
system.cpu1.dcache.sampled_refs                 33330                       # Sample count of references to valid blocks.
system.cpu1.dcache.avg_refs               4880.350375                       # Average number of references to valid blocks.
system.cpu1.dcache.warmup_cycle                     0                       # Cycle when the warmup percentage was hit.
system.cpu1.dcache.occ_blocks::switch_cpus1.data   231.215773                       # Average occupied blocks per requestor
system.cpu1.dcache.occ_blocks::cpu1.data    24.784227                       # Average occupied blocks per requestor
system.cpu1.dcache.occ_percent::switch_cpus1.data     0.903187                       # Average percentage of cache occupancy
system.cpu1.dcache.occ_percent::cpu1.data     0.096813                       # Average percentage of cache occupancy
system.cpu1.dcache.occ_percent::total               1                       # Average percentage of cache occupancy
system.cpu1.dcache.ReadReq_hits::switch_cpus1.data      9069539                       # number of ReadReq hits
system.cpu1.dcache.ReadReq_hits::total        9069539                       # number of ReadReq hits
system.cpu1.dcache.WriteReq_hits::switch_cpus1.data      7114242                       # number of WriteReq hits
system.cpu1.dcache.WriteReq_hits::total       7114242                       # number of WriteReq hits
system.cpu1.dcache.LoadLockedReq_hits::switch_cpus1.data        17220                       # number of LoadLockedReq hits
system.cpu1.dcache.LoadLockedReq_hits::total        17220                       # number of LoadLockedReq hits
system.cpu1.dcache.StoreCondReq_hits::switch_cpus1.data        17188                       # number of StoreCondReq hits
system.cpu1.dcache.StoreCondReq_hits::total        17188                       # number of StoreCondReq hits
system.cpu1.dcache.demand_hits::switch_cpus1.data     16183781                       # number of demand (read+write) hits
system.cpu1.dcache.demand_hits::total        16183781                       # number of demand (read+write) hits
system.cpu1.dcache.overall_hits::switch_cpus1.data     16183781                       # number of overall hits
system.cpu1.dcache.overall_hits::total       16183781                       # number of overall hits
system.cpu1.dcache.ReadReq_misses::switch_cpus1.data        85002                       # number of ReadReq misses
system.cpu1.dcache.ReadReq_misses::total        85002                       # number of ReadReq misses
system.cpu1.dcache.demand_misses::switch_cpus1.data        85002                       # number of demand (read+write) misses
system.cpu1.dcache.demand_misses::total         85002                       # number of demand (read+write) misses
system.cpu1.dcache.overall_misses::switch_cpus1.data        85002                       # number of overall misses
system.cpu1.dcache.overall_misses::total        85002                       # number of overall misses
system.cpu1.dcache.ReadReq_miss_latency::switch_cpus1.data   7101024134                       # number of ReadReq miss cycles
system.cpu1.dcache.ReadReq_miss_latency::total   7101024134                       # number of ReadReq miss cycles
system.cpu1.dcache.demand_miss_latency::switch_cpus1.data   7101024134                       # number of demand (read+write) miss cycles
system.cpu1.dcache.demand_miss_latency::total   7101024134                       # number of demand (read+write) miss cycles
system.cpu1.dcache.overall_miss_latency::switch_cpus1.data   7101024134                       # number of overall miss cycles
system.cpu1.dcache.overall_miss_latency::total   7101024134                       # number of overall miss cycles
system.cpu1.dcache.ReadReq_accesses::switch_cpus1.data      9154541                       # number of ReadReq accesses(hits+misses)
system.cpu1.dcache.ReadReq_accesses::total      9154541                       # number of ReadReq accesses(hits+misses)
system.cpu1.dcache.WriteReq_accesses::switch_cpus1.data      7114242                       # number of WriteReq accesses(hits+misses)
system.cpu1.dcache.WriteReq_accesses::total      7114242                       # number of WriteReq accesses(hits+misses)
system.cpu1.dcache.LoadLockedReq_accesses::switch_cpus1.data        17220                       # number of LoadLockedReq accesses(hits+misses)
system.cpu1.dcache.LoadLockedReq_accesses::total        17220                       # number of LoadLockedReq accesses(hits+misses)
system.cpu1.dcache.StoreCondReq_accesses::switch_cpus1.data        17188                       # number of StoreCondReq accesses(hits+misses)
system.cpu1.dcache.StoreCondReq_accesses::total        17188                       # number of StoreCondReq accesses(hits+misses)
system.cpu1.dcache.demand_accesses::switch_cpus1.data     16268783                       # number of demand (read+write) accesses
system.cpu1.dcache.demand_accesses::total     16268783                       # number of demand (read+write) accesses
system.cpu1.dcache.overall_accesses::switch_cpus1.data     16268783                       # number of overall (read+write) accesses
system.cpu1.dcache.overall_accesses::total     16268783                       # number of overall (read+write) accesses
system.cpu1.dcache.ReadReq_miss_rate::switch_cpus1.data     0.009285                       # miss rate for ReadReq accesses
system.cpu1.dcache.ReadReq_miss_rate::total     0.009285                       # miss rate for ReadReq accesses
system.cpu1.dcache.demand_miss_rate::switch_cpus1.data     0.005225                       # miss rate for demand accesses
system.cpu1.dcache.demand_miss_rate::total     0.005225                       # miss rate for demand accesses
system.cpu1.dcache.overall_miss_rate::switch_cpus1.data     0.005225                       # miss rate for overall accesses
system.cpu1.dcache.overall_miss_rate::total     0.005225                       # miss rate for overall accesses
system.cpu1.dcache.ReadReq_avg_miss_latency::switch_cpus1.data 83539.494765                       # average ReadReq miss latency
system.cpu1.dcache.ReadReq_avg_miss_latency::total 83539.494765                       # average ReadReq miss latency
system.cpu1.dcache.demand_avg_miss_latency::switch_cpus1.data 83539.494765                       # average overall miss latency
system.cpu1.dcache.demand_avg_miss_latency::total 83539.494765                       # average overall miss latency
system.cpu1.dcache.overall_avg_miss_latency::switch_cpus1.data 83539.494765                       # average overall miss latency
system.cpu1.dcache.overall_avg_miss_latency::total 83539.494765                       # average overall miss latency
system.cpu1.dcache.blocked_cycles::no_mshrs            0                       # number of cycles access was blocked
system.cpu1.dcache.blocked_cycles::no_targets            0                       # number of cycles access was blocked
system.cpu1.dcache.blocked::no_mshrs                0                       # number of cycles access was blocked
system.cpu1.dcache.blocked::no_targets              0                       # number of cycles access was blocked
system.cpu1.dcache.avg_blocked_cycles::no_mshrs          nan                       # average number of cycles each access was blocked
system.cpu1.dcache.avg_blocked_cycles::no_targets          nan                       # average number of cycles each access was blocked
system.cpu1.dcache.fast_writes                      0                       # number of fast writes performed
system.cpu1.dcache.cache_copies                     0                       # number of cache copies performed
system.cpu1.dcache.writebacks::writebacks        11188                       # number of writebacks
system.cpu1.dcache.writebacks::total            11188                       # number of writebacks
system.cpu1.dcache.ReadReq_mshr_hits::switch_cpus1.data        51928                       # number of ReadReq MSHR hits
system.cpu1.dcache.ReadReq_mshr_hits::total        51928                       # number of ReadReq MSHR hits
system.cpu1.dcache.demand_mshr_hits::switch_cpus1.data        51928                       # number of demand (read+write) MSHR hits
system.cpu1.dcache.demand_mshr_hits::total        51928                       # number of demand (read+write) MSHR hits
system.cpu1.dcache.overall_mshr_hits::switch_cpus1.data        51928                       # number of overall MSHR hits
system.cpu1.dcache.overall_mshr_hits::total        51928                       # number of overall MSHR hits
system.cpu1.dcache.ReadReq_mshr_misses::switch_cpus1.data        33074                       # number of ReadReq MSHR misses
system.cpu1.dcache.ReadReq_mshr_misses::total        33074                       # number of ReadReq MSHR misses
system.cpu1.dcache.demand_mshr_misses::switch_cpus1.data        33074                       # number of demand (read+write) MSHR misses
system.cpu1.dcache.demand_mshr_misses::total        33074                       # number of demand (read+write) MSHR misses
system.cpu1.dcache.overall_mshr_misses::switch_cpus1.data        33074                       # number of overall MSHR misses
system.cpu1.dcache.overall_mshr_misses::total        33074                       # number of overall MSHR misses
system.cpu1.dcache.ReadReq_mshr_miss_latency::switch_cpus1.data   2383544178                       # number of ReadReq MSHR miss cycles
system.cpu1.dcache.ReadReq_mshr_miss_latency::total   2383544178                       # number of ReadReq MSHR miss cycles
system.cpu1.dcache.demand_mshr_miss_latency::switch_cpus1.data   2383544178                       # number of demand (read+write) MSHR miss cycles
system.cpu1.dcache.demand_mshr_miss_latency::total   2383544178                       # number of demand (read+write) MSHR miss cycles
system.cpu1.dcache.overall_mshr_miss_latency::switch_cpus1.data   2383544178                       # number of overall MSHR miss cycles
system.cpu1.dcache.overall_mshr_miss_latency::total   2383544178                       # number of overall MSHR miss cycles
system.cpu1.dcache.ReadReq_mshr_miss_rate::switch_cpus1.data     0.003613                       # mshr miss rate for ReadReq accesses
system.cpu1.dcache.ReadReq_mshr_miss_rate::total     0.003613                       # mshr miss rate for ReadReq accesses
system.cpu1.dcache.demand_mshr_miss_rate::switch_cpus1.data     0.002033                       # mshr miss rate for demand accesses
system.cpu1.dcache.demand_mshr_miss_rate::total     0.002033                       # mshr miss rate for demand accesses
system.cpu1.dcache.overall_mshr_miss_rate::switch_cpus1.data     0.002033                       # mshr miss rate for overall accesses
system.cpu1.dcache.overall_mshr_miss_rate::total     0.002033                       # mshr miss rate for overall accesses
system.cpu1.dcache.ReadReq_avg_mshr_miss_latency::switch_cpus1.data 72067.006652                       # average ReadReq mshr miss latency
system.cpu1.dcache.ReadReq_avg_mshr_miss_latency::total 72067.006652                       # average ReadReq mshr miss latency
system.cpu1.dcache.demand_avg_mshr_miss_latency::switch_cpus1.data 72067.006652                       # average overall mshr miss latency
system.cpu1.dcache.demand_avg_mshr_miss_latency::total 72067.006652                       # average overall mshr miss latency
system.cpu1.dcache.overall_avg_mshr_miss_latency::switch_cpus1.data 72067.006652                       # average overall mshr miss latency
system.cpu1.dcache.overall_avg_mshr_miss_latency::total 72067.006652                       # average overall mshr miss latency
system.cpu1.dcache.no_allocate_misses               0                       # Number of misses that were no-allocate

---------- End Simulation Statistics   ----------
