
---------- Begin Simulation Statistics ----------
sim_seconds                                  0.119971                       # Number of seconds simulated
sim_ticks                                119971051788                       # Number of ticks simulated
final_tick                               685269483615                       # Number of ticks from beginning of simulation (restored from checkpoints and never reset)
sim_freq                                 1000000000000                       # Frequency of simulated ticks
host_inst_rate                                 319630                       # Simulator instruction rate (inst/s)
host_op_rate                                   399162                       # Simulator op (including micro ops) rate (op/s)
host_tick_rate                                1999295                       # Simulator tick rate (ticks/s)
host_mem_usage                               67606152                       # Number of bytes of host memory used
host_seconds                                 60006.69                       # Real time elapsed on the host
sim_insts                                 19179946370                       # Number of instructions simulated
sim_ops                                   23952366904                       # Number of ops (including micro ops) simulated
system.physmem.bytes_read::switch_cpus00.inst         4480                       # Number of bytes read from this memory
system.physmem.bytes_read::switch_cpus00.data      2921600                       # Number of bytes read from this memory
system.physmem.bytes_read::switch_cpus01.inst         4864                       # Number of bytes read from this memory
system.physmem.bytes_read::switch_cpus01.data      2984320                       # Number of bytes read from this memory
system.physmem.bytes_read::switch_cpus02.inst         5248                       # Number of bytes read from this memory
system.physmem.bytes_read::switch_cpus02.data      2151296                       # Number of bytes read from this memory
system.physmem.bytes_read::switch_cpus03.inst         4864                       # Number of bytes read from this memory
system.physmem.bytes_read::switch_cpus03.data      4881280                       # Number of bytes read from this memory
system.physmem.bytes_read::switch_cpus04.inst         4864                       # Number of bytes read from this memory
system.physmem.bytes_read::switch_cpus04.data      4430336                       # Number of bytes read from this memory
system.physmem.bytes_read::switch_cpus05.inst         4992                       # Number of bytes read from this memory
system.physmem.bytes_read::switch_cpus05.data      4391680                       # Number of bytes read from this memory
system.physmem.bytes_read::switch_cpus06.inst         4864                       # Number of bytes read from this memory
system.physmem.bytes_read::switch_cpus06.data      4431744                       # Number of bytes read from this memory
system.physmem.bytes_read::switch_cpus07.inst         4992                       # Number of bytes read from this memory
system.physmem.bytes_read::switch_cpus07.data      4814464                       # Number of bytes read from this memory
system.physmem.bytes_read::switch_cpus08.inst         5248                       # Number of bytes read from this memory
system.physmem.bytes_read::switch_cpus08.data      2174720                       # Number of bytes read from this memory
system.physmem.bytes_read::switch_cpus09.inst         4992                       # Number of bytes read from this memory
system.physmem.bytes_read::switch_cpus09.data      2988416                       # Number of bytes read from this memory
system.physmem.bytes_read::switch_cpus10.inst         4864                       # Number of bytes read from this memory
system.physmem.bytes_read::switch_cpus10.data      4826880                       # Number of bytes read from this memory
system.physmem.bytes_read::switch_cpus11.inst         5376                       # Number of bytes read from this memory
system.physmem.bytes_read::switch_cpus11.data      1668608                       # Number of bytes read from this memory
system.physmem.bytes_read::switch_cpus12.inst         5248                       # Number of bytes read from this memory
system.physmem.bytes_read::switch_cpus12.data      1672064                       # Number of bytes read from this memory
system.physmem.bytes_read::switch_cpus13.inst         5248                       # Number of bytes read from this memory
system.physmem.bytes_read::switch_cpus13.data      4880256                       # Number of bytes read from this memory
system.physmem.bytes_read::switch_cpus14.inst         4864                       # Number of bytes read from this memory
system.physmem.bytes_read::switch_cpus14.data      4846976                       # Number of bytes read from this memory
system.physmem.bytes_read::switch_cpus15.inst         4864                       # Number of bytes read from this memory
system.physmem.bytes_read::switch_cpus15.data      4427392                       # Number of bytes read from this memory
system.physmem.bytes_read::total             58571904                       # Number of bytes read from this memory
system.physmem.bytes_inst_read::switch_cpus00.inst         4480                       # Number of instructions bytes read from this memory
system.physmem.bytes_inst_read::switch_cpus01.inst         4864                       # Number of instructions bytes read from this memory
system.physmem.bytes_inst_read::switch_cpus02.inst         5248                       # Number of instructions bytes read from this memory
system.physmem.bytes_inst_read::switch_cpus03.inst         4864                       # Number of instructions bytes read from this memory
system.physmem.bytes_inst_read::switch_cpus04.inst         4864                       # Number of instructions bytes read from this memory
system.physmem.bytes_inst_read::switch_cpus05.inst         4992                       # Number of instructions bytes read from this memory
system.physmem.bytes_inst_read::switch_cpus06.inst         4864                       # Number of instructions bytes read from this memory
system.physmem.bytes_inst_read::switch_cpus07.inst         4992                       # Number of instructions bytes read from this memory
system.physmem.bytes_inst_read::switch_cpus08.inst         5248                       # Number of instructions bytes read from this memory
system.physmem.bytes_inst_read::switch_cpus09.inst         4992                       # Number of instructions bytes read from this memory
system.physmem.bytes_inst_read::switch_cpus10.inst         4864                       # Number of instructions bytes read from this memory
system.physmem.bytes_inst_read::switch_cpus11.inst         5376                       # Number of instructions bytes read from this memory
system.physmem.bytes_inst_read::switch_cpus12.inst         5248                       # Number of instructions bytes read from this memory
system.physmem.bytes_inst_read::switch_cpus13.inst         5248                       # Number of instructions bytes read from this memory
system.physmem.bytes_inst_read::switch_cpus14.inst         4864                       # Number of instructions bytes read from this memory
system.physmem.bytes_inst_read::switch_cpus15.inst         4864                       # Number of instructions bytes read from this memory
system.physmem.bytes_inst_read::total           79872                       # Number of instructions bytes read from this memory
system.physmem.bytes_written::writebacks     13539328                       # Number of bytes written to this memory
system.physmem.bytes_written::total          13539328                       # Number of bytes written to this memory
system.physmem.num_reads::switch_cpus00.inst           35                       # Number of read requests responded to by this memory
system.physmem.num_reads::switch_cpus00.data        22825                       # Number of read requests responded to by this memory
system.physmem.num_reads::switch_cpus01.inst           38                       # Number of read requests responded to by this memory
system.physmem.num_reads::switch_cpus01.data        23315                       # Number of read requests responded to by this memory
system.physmem.num_reads::switch_cpus02.inst           41                       # Number of read requests responded to by this memory
system.physmem.num_reads::switch_cpus02.data        16807                       # Number of read requests responded to by this memory
system.physmem.num_reads::switch_cpus03.inst           38                       # Number of read requests responded to by this memory
system.physmem.num_reads::switch_cpus03.data        38135                       # Number of read requests responded to by this memory
system.physmem.num_reads::switch_cpus04.inst           38                       # Number of read requests responded to by this memory
system.physmem.num_reads::switch_cpus04.data        34612                       # Number of read requests responded to by this memory
system.physmem.num_reads::switch_cpus05.inst           39                       # Number of read requests responded to by this memory
system.physmem.num_reads::switch_cpus05.data        34310                       # Number of read requests responded to by this memory
system.physmem.num_reads::switch_cpus06.inst           38                       # Number of read requests responded to by this memory
system.physmem.num_reads::switch_cpus06.data        34623                       # Number of read requests responded to by this memory
system.physmem.num_reads::switch_cpus07.inst           39                       # Number of read requests responded to by this memory
system.physmem.num_reads::switch_cpus07.data        37613                       # Number of read requests responded to by this memory
system.physmem.num_reads::switch_cpus08.inst           41                       # Number of read requests responded to by this memory
system.physmem.num_reads::switch_cpus08.data        16990                       # Number of read requests responded to by this memory
system.physmem.num_reads::switch_cpus09.inst           39                       # Number of read requests responded to by this memory
system.physmem.num_reads::switch_cpus09.data        23347                       # Number of read requests responded to by this memory
system.physmem.num_reads::switch_cpus10.inst           38                       # Number of read requests responded to by this memory
system.physmem.num_reads::switch_cpus10.data        37710                       # Number of read requests responded to by this memory
system.physmem.num_reads::switch_cpus11.inst           42                       # Number of read requests responded to by this memory
system.physmem.num_reads::switch_cpus11.data        13036                       # Number of read requests responded to by this memory
system.physmem.num_reads::switch_cpus12.inst           41                       # Number of read requests responded to by this memory
system.physmem.num_reads::switch_cpus12.data        13063                       # Number of read requests responded to by this memory
system.physmem.num_reads::switch_cpus13.inst           41                       # Number of read requests responded to by this memory
system.physmem.num_reads::switch_cpus13.data        38127                       # Number of read requests responded to by this memory
system.physmem.num_reads::switch_cpus14.inst           38                       # Number of read requests responded to by this memory
system.physmem.num_reads::switch_cpus14.data        37867                       # Number of read requests responded to by this memory
system.physmem.num_reads::switch_cpus15.inst           38                       # Number of read requests responded to by this memory
system.physmem.num_reads::switch_cpus15.data        34589                       # Number of read requests responded to by this memory
system.physmem.num_reads::total                457593                       # Number of read requests responded to by this memory
system.physmem.num_writes::writebacks          105776                       # Number of write requests responded to by this memory
system.physmem.num_writes::functional               0                       # Number of write requests responded to by this memory
system.physmem.num_writes::interrupt                0                       # Number of write requests responded to by this memory
system.physmem.num_writes::switch_cpus00.dtb.walker            0                       # Number of write requests responded to by this memory
system.physmem.num_writes::switch_cpus00.itb.walker            0                       # Number of write requests responded to by this memory
system.physmem.num_writes::switch_cpus00.inst            0                       # Number of write requests responded to by this memory
system.physmem.num_writes::switch_cpus00.data            0                       # Number of write requests responded to by this memory
system.physmem.num_writes::switch_cpus01.dtb.walker            0                       # Number of write requests responded to by this memory
system.physmem.num_writes::switch_cpus01.itb.walker            0                       # Number of write requests responded to by this memory
system.physmem.num_writes::switch_cpus01.inst            0                       # Number of write requests responded to by this memory
system.physmem.num_writes::switch_cpus01.data            0                       # Number of write requests responded to by this memory
system.physmem.num_writes::switch_cpus02.dtb.walker            0                       # Number of write requests responded to by this memory
system.physmem.num_writes::switch_cpus02.itb.walker            0                       # Number of write requests responded to by this memory
system.physmem.num_writes::switch_cpus02.inst            0                       # Number of write requests responded to by this memory
system.physmem.num_writes::switch_cpus02.data            0                       # Number of write requests responded to by this memory
system.physmem.num_writes::switch_cpus03.dtb.walker            0                       # Number of write requests responded to by this memory
system.physmem.num_writes::switch_cpus03.itb.walker            0                       # Number of write requests responded to by this memory
system.physmem.num_writes::switch_cpus03.inst            0                       # Number of write requests responded to by this memory
system.physmem.num_writes::switch_cpus03.data            0                       # Number of write requests responded to by this memory
system.physmem.num_writes::switch_cpus04.dtb.walker            0                       # Number of write requests responded to by this memory
system.physmem.num_writes::switch_cpus04.itb.walker            0                       # Number of write requests responded to by this memory
system.physmem.num_writes::switch_cpus04.inst            0                       # Number of write requests responded to by this memory
system.physmem.num_writes::switch_cpus04.data            0                       # Number of write requests responded to by this memory
system.physmem.num_writes::switch_cpus05.dtb.walker            0                       # Number of write requests responded to by this memory
system.physmem.num_writes::switch_cpus05.itb.walker            0                       # Number of write requests responded to by this memory
system.physmem.num_writes::switch_cpus05.inst            0                       # Number of write requests responded to by this memory
system.physmem.num_writes::switch_cpus05.data            0                       # Number of write requests responded to by this memory
system.physmem.num_writes::switch_cpus06.dtb.walker            0                       # Number of write requests responded to by this memory
system.physmem.num_writes::switch_cpus06.itb.walker            0                       # Number of write requests responded to by this memory
system.physmem.num_writes::switch_cpus06.inst            0                       # Number of write requests responded to by this memory
system.physmem.num_writes::switch_cpus06.data            0                       # Number of write requests responded to by this memory
system.physmem.num_writes::switch_cpus07.dtb.walker            0                       # Number of write requests responded to by this memory
system.physmem.num_writes::switch_cpus07.itb.walker            0                       # Number of write requests responded to by this memory
system.physmem.num_writes::switch_cpus07.inst            0                       # Number of write requests responded to by this memory
system.physmem.num_writes::switch_cpus07.data            0                       # Number of write requests responded to by this memory
system.physmem.num_writes::switch_cpus08.dtb.walker            0                       # Number of write requests responded to by this memory
system.physmem.num_writes::switch_cpus08.itb.walker            0                       # Number of write requests responded to by this memory
system.physmem.num_writes::switch_cpus08.inst            0                       # Number of write requests responded to by this memory
system.physmem.num_writes::switch_cpus08.data            0                       # Number of write requests responded to by this memory
system.physmem.num_writes::switch_cpus09.dtb.walker            0                       # Number of write requests responded to by this memory
system.physmem.num_writes::switch_cpus09.itb.walker            0                       # Number of write requests responded to by this memory
system.physmem.num_writes::switch_cpus09.inst            0                       # Number of write requests responded to by this memory
system.physmem.num_writes::switch_cpus09.data            0                       # Number of write requests responded to by this memory
system.physmem.num_writes::switch_cpus10.dtb.walker            0                       # Number of write requests responded to by this memory
system.physmem.num_writes::switch_cpus10.itb.walker            0                       # Number of write requests responded to by this memory
system.physmem.num_writes::switch_cpus10.inst            0                       # Number of write requests responded to by this memory
system.physmem.num_writes::switch_cpus10.data            0                       # Number of write requests responded to by this memory
system.physmem.num_writes::switch_cpus11.dtb.walker            0                       # Number of write requests responded to by this memory
system.physmem.num_writes::switch_cpus11.itb.walker            0                       # Number of write requests responded to by this memory
system.physmem.num_writes::switch_cpus11.inst            0                       # Number of write requests responded to by this memory
system.physmem.num_writes::switch_cpus11.data            0                       # Number of write requests responded to by this memory
system.physmem.num_writes::switch_cpus12.dtb.walker            0                       # Number of write requests responded to by this memory
system.physmem.num_writes::switch_cpus12.itb.walker            0                       # Number of write requests responded to by this memory
system.physmem.num_writes::switch_cpus12.inst            0                       # Number of write requests responded to by this memory
system.physmem.num_writes::switch_cpus12.data            0                       # Number of write requests responded to by this memory
system.physmem.num_writes::switch_cpus13.dtb.walker            0                       # Number of write requests responded to by this memory
system.physmem.num_writes::switch_cpus13.itb.walker            0                       # Number of write requests responded to by this memory
system.physmem.num_writes::switch_cpus13.inst            0                       # Number of write requests responded to by this memory
system.physmem.num_writes::switch_cpus13.data            0                       # Number of write requests responded to by this memory
system.physmem.num_writes::switch_cpus14.dtb.walker            0                       # Number of write requests responded to by this memory
system.physmem.num_writes::switch_cpus14.itb.walker            0                       # Number of write requests responded to by this memory
system.physmem.num_writes::switch_cpus14.inst            0                       # Number of write requests responded to by this memory
system.physmem.num_writes::switch_cpus14.data            0                       # Number of write requests responded to by this memory
system.physmem.num_writes::switch_cpus15.dtb.walker            0                       # Number of write requests responded to by this memory
system.physmem.num_writes::switch_cpus15.itb.walker            0                       # Number of write requests responded to by this memory
system.physmem.num_writes::switch_cpus15.inst            0                       # Number of write requests responded to by this memory
system.physmem.num_writes::switch_cpus15.data            0                       # Number of write requests responded to by this memory
system.physmem.num_writes::cpu00.dtb.walker            0                       # Number of write requests responded to by this memory
system.physmem.num_writes::cpu00.itb.walker            0                       # Number of write requests responded to by this memory
system.physmem.num_writes::cpu00.inst               0                       # Number of write requests responded to by this memory
system.physmem.num_writes::cpu00.data               0                       # Number of write requests responded to by this memory
system.physmem.num_writes::cpu01.dtb.walker            0                       # Number of write requests responded to by this memory
system.physmem.num_writes::cpu01.itb.walker            0                       # Number of write requests responded to by this memory
system.physmem.num_writes::cpu01.inst               0                       # Number of write requests responded to by this memory
system.physmem.num_writes::cpu01.data               0                       # Number of write requests responded to by this memory
system.physmem.num_writes::cpu02.dtb.walker            0                       # Number of write requests responded to by this memory
system.physmem.num_writes::cpu02.itb.walker            0                       # Number of write requests responded to by this memory
system.physmem.num_writes::cpu02.inst               0                       # Number of write requests responded to by this memory
system.physmem.num_writes::cpu02.data               0                       # Number of write requests responded to by this memory
system.physmem.num_writes::cpu03.dtb.walker            0                       # Number of write requests responded to by this memory
system.physmem.num_writes::cpu03.itb.walker            0                       # Number of write requests responded to by this memory
system.physmem.num_writes::cpu03.inst               0                       # Number of write requests responded to by this memory
system.physmem.num_writes::cpu03.data               0                       # Number of write requests responded to by this memory
system.physmem.num_writes::cpu04.dtb.walker            0                       # Number of write requests responded to by this memory
system.physmem.num_writes::cpu04.itb.walker            0                       # Number of write requests responded to by this memory
system.physmem.num_writes::cpu04.inst               0                       # Number of write requests responded to by this memory
system.physmem.num_writes::cpu04.data               0                       # Number of write requests responded to by this memory
system.physmem.num_writes::cpu05.dtb.walker            0                       # Number of write requests responded to by this memory
system.physmem.num_writes::cpu05.itb.walker            0                       # Number of write requests responded to by this memory
system.physmem.num_writes::cpu05.inst               0                       # Number of write requests responded to by this memory
system.physmem.num_writes::cpu05.data               0                       # Number of write requests responded to by this memory
system.physmem.num_writes::cpu06.dtb.walker            0                       # Number of write requests responded to by this memory
system.physmem.num_writes::cpu06.itb.walker            0                       # Number of write requests responded to by this memory
system.physmem.num_writes::cpu06.inst               0                       # Number of write requests responded to by this memory
system.physmem.num_writes::cpu06.data               0                       # Number of write requests responded to by this memory
system.physmem.num_writes::cpu07.dtb.walker            0                       # Number of write requests responded to by this memory
system.physmem.num_writes::cpu07.itb.walker            0                       # Number of write requests responded to by this memory
system.physmem.num_writes::cpu07.inst               0                       # Number of write requests responded to by this memory
system.physmem.num_writes::cpu07.data               0                       # Number of write requests responded to by this memory
system.physmem.num_writes::cpu08.dtb.walker            0                       # Number of write requests responded to by this memory
system.physmem.num_writes::cpu08.itb.walker            0                       # Number of write requests responded to by this memory
system.physmem.num_writes::cpu08.inst               0                       # Number of write requests responded to by this memory
system.physmem.num_writes::cpu08.data               0                       # Number of write requests responded to by this memory
system.physmem.num_writes::cpu09.dtb.walker            0                       # Number of write requests responded to by this memory
system.physmem.num_writes::cpu09.itb.walker            0                       # Number of write requests responded to by this memory
system.physmem.num_writes::cpu09.inst               0                       # Number of write requests responded to by this memory
system.physmem.num_writes::cpu09.data               0                       # Number of write requests responded to by this memory
system.physmem.num_writes::cpu10.dtb.walker            0                       # Number of write requests responded to by this memory
system.physmem.num_writes::cpu10.itb.walker            0                       # Number of write requests responded to by this memory
system.physmem.num_writes::cpu10.inst               0                       # Number of write requests responded to by this memory
system.physmem.num_writes::cpu10.data               0                       # Number of write requests responded to by this memory
system.physmem.num_writes::cpu11.dtb.walker            0                       # Number of write requests responded to by this memory
system.physmem.num_writes::cpu11.itb.walker            0                       # Number of write requests responded to by this memory
system.physmem.num_writes::cpu11.inst               0                       # Number of write requests responded to by this memory
system.physmem.num_writes::cpu11.data               0                       # Number of write requests responded to by this memory
system.physmem.num_writes::cpu12.dtb.walker            0                       # Number of write requests responded to by this memory
system.physmem.num_writes::cpu12.itb.walker            0                       # Number of write requests responded to by this memory
system.physmem.num_writes::cpu12.inst               0                       # Number of write requests responded to by this memory
system.physmem.num_writes::cpu12.data               0                       # Number of write requests responded to by this memory
system.physmem.num_writes::cpu13.dtb.walker            0                       # Number of write requests responded to by this memory
system.physmem.num_writes::cpu13.itb.walker            0                       # Number of write requests responded to by this memory
system.physmem.num_writes::cpu13.inst               0                       # Number of write requests responded to by this memory
system.physmem.num_writes::cpu13.data               0                       # Number of write requests responded to by this memory
system.physmem.num_writes::cpu14.dtb.walker            0                       # Number of write requests responded to by this memory
system.physmem.num_writes::cpu14.itb.walker            0                       # Number of write requests responded to by this memory
system.physmem.num_writes::cpu14.inst               0                       # Number of write requests responded to by this memory
system.physmem.num_writes::cpu14.data               0                       # Number of write requests responded to by this memory
system.physmem.num_writes::cpu15.dtb.walker            0                       # Number of write requests responded to by this memory
system.physmem.num_writes::cpu15.itb.walker            0                       # Number of write requests responded to by this memory
system.physmem.num_writes::cpu15.inst               0                       # Number of write requests responded to by this memory
system.physmem.num_writes::cpu15.data               0                       # Number of write requests responded to by this memory
system.physmem.num_writes::total               105776                       # Number of write requests responded to by this memory
system.physmem.bw_read::switch_cpus00.inst        37342                       # Total read bandwidth from this memory (bytes/s)
system.physmem.bw_read::switch_cpus00.data     24352541                       # Total read bandwidth from this memory (bytes/s)
system.physmem.bw_read::switch_cpus01.inst        40543                       # Total read bandwidth from this memory (bytes/s)
system.physmem.bw_read::switch_cpus01.data     24875334                       # Total read bandwidth from this memory (bytes/s)
system.physmem.bw_read::switch_cpus02.inst        43744                       # Total read bandwidth from this memory (bytes/s)
system.physmem.bw_read::switch_cpus02.data     17931792                       # Total read bandwidth from this memory (bytes/s)
system.physmem.bw_read::switch_cpus03.inst        40543                       # Total read bandwidth from this memory (bytes/s)
system.physmem.bw_read::switch_cpus03.data     40687149                       # Total read bandwidth from this memory (bytes/s)
system.physmem.bw_read::switch_cpus04.inst        40543                       # Total read bandwidth from this memory (bytes/s)
system.physmem.bw_read::switch_cpus04.data     36928375                       # Total read bandwidth from this memory (bytes/s)
system.physmem.bw_read::switch_cpus05.inst        41610                       # Total read bandwidth from this memory (bytes/s)
system.physmem.bw_read::switch_cpus05.data     36606164                       # Total read bandwidth from this memory (bytes/s)
system.physmem.bw_read::switch_cpus06.inst        40543                       # Total read bandwidth from this memory (bytes/s)
system.physmem.bw_read::switch_cpus06.data     36940111                       # Total read bandwidth from this memory (bytes/s)
system.physmem.bw_read::switch_cpus07.inst        41610                       # Total read bandwidth from this memory (bytes/s)
system.physmem.bw_read::switch_cpus07.data     40130214                       # Total read bandwidth from this memory (bytes/s)
system.physmem.bw_read::switch_cpus08.inst        43744                       # Total read bandwidth from this memory (bytes/s)
system.physmem.bw_read::switch_cpus08.data     18127040                       # Total read bandwidth from this memory (bytes/s)
system.physmem.bw_read::switch_cpus09.inst        41610                       # Total read bandwidth from this memory (bytes/s)
system.physmem.bw_read::switch_cpus09.data     24909476                       # Total read bandwidth from this memory (bytes/s)
system.physmem.bw_read::switch_cpus10.inst        40543                       # Total read bandwidth from this memory (bytes/s)
system.physmem.bw_read::switch_cpus10.data     40233706                       # Total read bandwidth from this memory (bytes/s)
system.physmem.bw_read::switch_cpus11.inst        44811                       # Total read bandwidth from this memory (bytes/s)
system.physmem.bw_read::switch_cpus11.data     13908422                       # Total read bandwidth from this memory (bytes/s)
system.physmem.bw_read::switch_cpus12.inst        43744                       # Total read bandwidth from this memory (bytes/s)
system.physmem.bw_read::switch_cpus12.data     13937229                       # Total read bandwidth from this memory (bytes/s)
system.physmem.bw_read::switch_cpus13.inst        43744                       # Total read bandwidth from this memory (bytes/s)
system.physmem.bw_read::switch_cpus13.data     40678613                       # Total read bandwidth from this memory (bytes/s)
system.physmem.bw_read::switch_cpus14.inst        40543                       # Total read bandwidth from this memory (bytes/s)
system.physmem.bw_read::switch_cpus14.data     40401213                       # Total read bandwidth from this memory (bytes/s)
system.physmem.bw_read::switch_cpus15.inst        40543                       # Total read bandwidth from this memory (bytes/s)
system.physmem.bw_read::switch_cpus15.data     36903836                       # Total read bandwidth from this memory (bytes/s)
system.physmem.bw_read::total               488216975                       # Total read bandwidth from this memory (bytes/s)
system.physmem.bw_inst_read::switch_cpus00.inst        37342                       # Instruction read bandwidth from this memory (bytes/s)
system.physmem.bw_inst_read::switch_cpus01.inst        40543                       # Instruction read bandwidth from this memory (bytes/s)
system.physmem.bw_inst_read::switch_cpus02.inst        43744                       # Instruction read bandwidth from this memory (bytes/s)
system.physmem.bw_inst_read::switch_cpus03.inst        40543                       # Instruction read bandwidth from this memory (bytes/s)
system.physmem.bw_inst_read::switch_cpus04.inst        40543                       # Instruction read bandwidth from this memory (bytes/s)
system.physmem.bw_inst_read::switch_cpus05.inst        41610                       # Instruction read bandwidth from this memory (bytes/s)
system.physmem.bw_inst_read::switch_cpus06.inst        40543                       # Instruction read bandwidth from this memory (bytes/s)
system.physmem.bw_inst_read::switch_cpus07.inst        41610                       # Instruction read bandwidth from this memory (bytes/s)
system.physmem.bw_inst_read::switch_cpus08.inst        43744                       # Instruction read bandwidth from this memory (bytes/s)
system.physmem.bw_inst_read::switch_cpus09.inst        41610                       # Instruction read bandwidth from this memory (bytes/s)
system.physmem.bw_inst_read::switch_cpus10.inst        40543                       # Instruction read bandwidth from this memory (bytes/s)
system.physmem.bw_inst_read::switch_cpus11.inst        44811                       # Instruction read bandwidth from this memory (bytes/s)
system.physmem.bw_inst_read::switch_cpus12.inst        43744                       # Instruction read bandwidth from this memory (bytes/s)
system.physmem.bw_inst_read::switch_cpus13.inst        43744                       # Instruction read bandwidth from this memory (bytes/s)
system.physmem.bw_inst_read::switch_cpus14.inst        40543                       # Instruction read bandwidth from this memory (bytes/s)
system.physmem.bw_inst_read::switch_cpus15.inst        40543                       # Instruction read bandwidth from this memory (bytes/s)
system.physmem.bw_inst_read::total             665761                       # Instruction read bandwidth from this memory (bytes/s)
system.physmem.bw_write::writebacks         112854958                       # Write bandwidth from this memory (bytes/s)
system.physmem.bw_write::total              112854958                       # Write bandwidth from this memory (bytes/s)
system.physmem.bw_total::writebacks         112854958                       # Total bandwidth to/from this memory (bytes/s)
system.physmem.bw_total::switch_cpus00.inst        37342                       # Total bandwidth to/from this memory (bytes/s)
system.physmem.bw_total::switch_cpus00.data     24352541                       # Total bandwidth to/from this memory (bytes/s)
system.physmem.bw_total::switch_cpus01.inst        40543                       # Total bandwidth to/from this memory (bytes/s)
system.physmem.bw_total::switch_cpus01.data     24875334                       # Total bandwidth to/from this memory (bytes/s)
system.physmem.bw_total::switch_cpus02.inst        43744                       # Total bandwidth to/from this memory (bytes/s)
system.physmem.bw_total::switch_cpus02.data     17931792                       # Total bandwidth to/from this memory (bytes/s)
system.physmem.bw_total::switch_cpus03.inst        40543                       # Total bandwidth to/from this memory (bytes/s)
system.physmem.bw_total::switch_cpus03.data     40687149                       # Total bandwidth to/from this memory (bytes/s)
system.physmem.bw_total::switch_cpus04.inst        40543                       # Total bandwidth to/from this memory (bytes/s)
system.physmem.bw_total::switch_cpus04.data     36928375                       # Total bandwidth to/from this memory (bytes/s)
system.physmem.bw_total::switch_cpus05.inst        41610                       # Total bandwidth to/from this memory (bytes/s)
system.physmem.bw_total::switch_cpus05.data     36606164                       # Total bandwidth to/from this memory (bytes/s)
system.physmem.bw_total::switch_cpus06.inst        40543                       # Total bandwidth to/from this memory (bytes/s)
system.physmem.bw_total::switch_cpus06.data     36940111                       # Total bandwidth to/from this memory (bytes/s)
system.physmem.bw_total::switch_cpus07.inst        41610                       # Total bandwidth to/from this memory (bytes/s)
system.physmem.bw_total::switch_cpus07.data     40130214                       # Total bandwidth to/from this memory (bytes/s)
system.physmem.bw_total::switch_cpus08.inst        43744                       # Total bandwidth to/from this memory (bytes/s)
system.physmem.bw_total::switch_cpus08.data     18127040                       # Total bandwidth to/from this memory (bytes/s)
system.physmem.bw_total::switch_cpus09.inst        41610                       # Total bandwidth to/from this memory (bytes/s)
system.physmem.bw_total::switch_cpus09.data     24909476                       # Total bandwidth to/from this memory (bytes/s)
system.physmem.bw_total::switch_cpus10.inst        40543                       # Total bandwidth to/from this memory (bytes/s)
system.physmem.bw_total::switch_cpus10.data     40233706                       # Total bandwidth to/from this memory (bytes/s)
system.physmem.bw_total::switch_cpus11.inst        44811                       # Total bandwidth to/from this memory (bytes/s)
system.physmem.bw_total::switch_cpus11.data     13908422                       # Total bandwidth to/from this memory (bytes/s)
system.physmem.bw_total::switch_cpus12.inst        43744                       # Total bandwidth to/from this memory (bytes/s)
system.physmem.bw_total::switch_cpus12.data     13937229                       # Total bandwidth to/from this memory (bytes/s)
system.physmem.bw_total::switch_cpus13.inst        43744                       # Total bandwidth to/from this memory (bytes/s)
system.physmem.bw_total::switch_cpus13.data     40678613                       # Total bandwidth to/from this memory (bytes/s)
system.physmem.bw_total::switch_cpus14.inst        40543                       # Total bandwidth to/from this memory (bytes/s)
system.physmem.bw_total::switch_cpus14.data     40401213                       # Total bandwidth to/from this memory (bytes/s)
system.physmem.bw_total::switch_cpus15.inst        40543                       # Total bandwidth to/from this memory (bytes/s)
system.physmem.bw_total::switch_cpus15.data     36903836                       # Total bandwidth to/from this memory (bytes/s)
system.physmem.bw_total::total              601071933                       # Total bandwidth to/from this memory (bytes/s)
system.switch_cpus00.dtb.inst_hits                  0                       # ITB inst hits
system.switch_cpus00.dtb.inst_misses                0                       # ITB inst misses
system.switch_cpus00.dtb.read_hits                  0                       # DTB read hits
system.switch_cpus00.dtb.read_misses                0                       # DTB read misses
system.switch_cpus00.dtb.write_hits                 0                       # DTB write hits
system.switch_cpus00.dtb.write_misses               0                       # DTB write misses
system.switch_cpus00.dtb.flush_tlb                  0                       # Number of times complete TLB was flushed
system.switch_cpus00.dtb.flush_tlb_mva              0                       # Number of times TLB was flushed by MVA
system.switch_cpus00.dtb.flush_tlb_mva_asid            0                       # Number of times TLB was flushed by MVA & ASID
system.switch_cpus00.dtb.flush_tlb_asid             0                       # Number of times TLB was flushed by ASID
system.switch_cpus00.dtb.flush_entries              0                       # Number of entries that have been flushed from TLB
system.switch_cpus00.dtb.align_faults               0                       # Number of TLB faults due to alignment restrictions
system.switch_cpus00.dtb.prefetch_faults            0                       # Number of TLB faults due to prefetch
system.switch_cpus00.dtb.domain_faults              0                       # Number of TLB faults due to domain restrictions
system.switch_cpus00.dtb.perms_faults               0                       # Number of TLB faults due to permissions restrictions
system.switch_cpus00.dtb.read_accesses              0                       # DTB read accesses
system.switch_cpus00.dtb.write_accesses             0                       # DTB write accesses
system.switch_cpus00.dtb.inst_accesses              0                       # ITB inst accesses
system.switch_cpus00.dtb.hits                       0                       # DTB hits
system.switch_cpus00.dtb.misses                     0                       # DTB misses
system.switch_cpus00.dtb.accesses                   0                       # DTB accesses
system.switch_cpus00.itb.inst_hits                  0                       # ITB inst hits
system.switch_cpus00.itb.inst_misses                0                       # ITB inst misses
system.switch_cpus00.itb.read_hits                  0                       # DTB read hits
system.switch_cpus00.itb.read_misses                0                       # DTB read misses
system.switch_cpus00.itb.write_hits                 0                       # DTB write hits
system.switch_cpus00.itb.write_misses               0                       # DTB write misses
system.switch_cpus00.itb.flush_tlb                  0                       # Number of times complete TLB was flushed
system.switch_cpus00.itb.flush_tlb_mva              0                       # Number of times TLB was flushed by MVA
system.switch_cpus00.itb.flush_tlb_mva_asid            0                       # Number of times TLB was flushed by MVA & ASID
system.switch_cpus00.itb.flush_tlb_asid             0                       # Number of times TLB was flushed by ASID
system.switch_cpus00.itb.flush_entries              0                       # Number of entries that have been flushed from TLB
system.switch_cpus00.itb.align_faults               0                       # Number of TLB faults due to alignment restrictions
system.switch_cpus00.itb.prefetch_faults            0                       # Number of TLB faults due to prefetch
system.switch_cpus00.itb.domain_faults              0                       # Number of TLB faults due to domain restrictions
system.switch_cpus00.itb.perms_faults               0                       # Number of TLB faults due to permissions restrictions
system.switch_cpus00.itb.read_accesses              0                       # DTB read accesses
system.switch_cpus00.itb.write_accesses             0                       # DTB write accesses
system.switch_cpus00.itb.inst_accesses              0                       # ITB inst accesses
system.switch_cpus00.itb.hits                       0                       # DTB hits
system.switch_cpus00.itb.misses                     0                       # DTB misses
system.switch_cpus00.itb.accesses                   0                       # DTB accesses
system.cpu00.workload.num_syscalls                 29                       # Number of system calls
system.switch_cpus00.numCycles              287700365                       # number of cpu cycles simulated
system.switch_cpus00.numWorkItemsStarted            0                       # number of work items this cpu started
system.switch_cpus00.numWorkItemsCompleted            0                       # number of work items this cpu completed
system.switch_cpus00.BPredUnit.lookups       21814393                       # Number of BP lookups
system.switch_cpus00.BPredUnit.condPredicted     19471117                       # Number of conditional branches predicted
system.switch_cpus00.BPredUnit.condIncorrect      1740386                       # Number of conditional branches incorrect
system.switch_cpus00.BPredUnit.BTBLookups     14468685                       # Number of BTB lookups
system.switch_cpus00.BPredUnit.BTBHits       14213339                       # Number of BTB hits
system.switch_cpus00.BPredUnit.BTBCorrect            0                       # Number of correct BTB predictions (this stat may not work properly.
system.switch_cpus00.BPredUnit.usedRAS        1309993                       # Number of times the RAS was used to get a target.
system.switch_cpus00.BPredUnit.RASInCorrect        52009                       # Number of incorrect RAS predictions.
system.switch_cpus00.fetch.icacheStallCycles    230411674                       # Number of cycles fetch is stalled on an Icache miss
system.switch_cpus00.fetch.Insts            123952035                       # Number of instructions fetch has processed
system.switch_cpus00.fetch.Branches          21814393                       # Number of branches that fetch encountered
system.switch_cpus00.fetch.predictedBranches     15523332                       # Number of branches that fetch has predicted taken
system.switch_cpus00.fetch.Cycles            27623461                       # Number of cycles fetch has run and was not squashing or blocked
system.switch_cpus00.fetch.SquashCycles       5726186                       # Number of cycles fetch has spent squashing
system.switch_cpus00.fetch.BlockedCycles      3518997                       # Number of cycles fetch has spent blocked
system.switch_cpus00.fetch.MiscStallCycles            1                       # Number of cycles fetch has spent waiting on interrupts, or bad addresses, or out of MSHRs
system.switch_cpus00.fetch.PendingTrapStallCycles           29                       # Number of stall cycles due to pending traps
system.switch_cpus00.fetch.CacheLines        13943945                       # Number of cache lines fetched
system.switch_cpus00.fetch.IcacheSquashes      1708176                       # Number of outstanding Icache misses that were squashed
system.switch_cpus00.fetch.rateDist::samples    265530165                       # Number of instructions fetched each cycle (Total)
system.switch_cpus00.fetch.rateDist::mean     0.523063                       # Number of instructions fetched each cycle (Total)
system.switch_cpus00.fetch.rateDist::stdev     1.765681                       # Number of instructions fetched each cycle (Total)
system.switch_cpus00.fetch.rateDist::underflows            0      0.00%      0.00% # Number of instructions fetched each cycle (Total)
system.switch_cpus00.fetch.rateDist::0      237906704     89.60%     89.60% # Number of instructions fetched each cycle (Total)
system.switch_cpus00.fetch.rateDist::1        4204206      1.58%     91.18% # Number of instructions fetched each cycle (Total)
system.switch_cpus00.fetch.rateDist::2        2133183      0.80%     91.98% # Number of instructions fetched each cycle (Total)
system.switch_cpus00.fetch.rateDist::3        4158588      1.57%     93.55% # Number of instructions fetched each cycle (Total)
system.switch_cpus00.fetch.rateDist::4        1337214      0.50%     94.05% # Number of instructions fetched each cycle (Total)
system.switch_cpus00.fetch.rateDist::5        3840655      1.45%     95.50% # Number of instructions fetched each cycle (Total)
system.switch_cpus00.fetch.rateDist::6         608244      0.23%     95.73% # Number of instructions fetched each cycle (Total)
system.switch_cpus00.fetch.rateDist::7         989874      0.37%     96.10% # Number of instructions fetched each cycle (Total)
system.switch_cpus00.fetch.rateDist::8       10351497      3.90%    100.00% # Number of instructions fetched each cycle (Total)
system.switch_cpus00.fetch.rateDist::overflows            0      0.00%    100.00% # Number of instructions fetched each cycle (Total)
system.switch_cpus00.fetch.rateDist::min_value            0                       # Number of instructions fetched each cycle (Total)
system.switch_cpus00.fetch.rateDist::max_value            8                       # Number of instructions fetched each cycle (Total)
system.switch_cpus00.fetch.rateDist::total    265530165                       # Number of instructions fetched each cycle (Total)
system.switch_cpus00.fetch.branchRate        0.075823                       # Number of branch fetches per cycle
system.switch_cpus00.fetch.rate              0.430837                       # Number of inst fetches per cycle
system.switch_cpus00.decode.IdleCycles      228026804                       # Number of cycles decode is idle
system.switch_cpus00.decode.BlockedCycles      5956553                       # Number of cycles decode is blocked
system.switch_cpus00.decode.RunCycles        27568945                       # Number of cycles decode is running
system.switch_cpus00.decode.UnblockCycles        22223                       # Number of cycles decode is unblocking
system.switch_cpus00.decode.SquashCycles      3955636                       # Number of cycles decode is squashing
system.switch_cpus00.decode.BranchResolved      2065198                       # Number of times decode resolved a branch
system.switch_cpus00.decode.BranchMispred        20367                       # Number of times decode detected a branch misprediction
system.switch_cpus00.decode.DecodedInsts    138671911                       # Number of instructions handled by decode
system.switch_cpus00.decode.SquashedInsts        38345                       # Number of squashed instructions handled by decode
system.switch_cpus00.rename.SquashCycles      3955636                       # Number of cycles rename is squashing
system.switch_cpus00.rename.IdleCycles      228296185                       # Number of cycles rename is idle
system.switch_cpus00.rename.BlockCycles       3515942                       # Number of cycles rename is blocking
system.switch_cpus00.rename.serializeStallCycles      1599879                       # count of cycles rename stalled for serializing inst
system.switch_cpus00.rename.RunCycles        27311538                       # Number of cycles rename is running
system.switch_cpus00.rename.UnblockCycles       850981                       # Number of cycles rename is unblocking
system.switch_cpus00.rename.RenamedInsts    138469320                       # Number of instructions processed by rename
system.switch_cpus00.rename.ROBFullEvents          259                       # Number of times rename has blocked due to ROB full
system.switch_cpus00.rename.IQFullEvents       106650                       # Number of times rename has blocked due to IQ full
system.switch_cpus00.rename.LSQFullEvents       663654                       # Number of times rename has blocked due to LSQ full
system.switch_cpus00.rename.RenamedOperands    181492078                       # Number of destination operands rename has renamed
system.switch_cpus00.rename.RenameLookups    627639467                       # Number of register rename lookups that rename has made
system.switch_cpus00.rename.int_rename_lookups    627639467                       # Number of integer rename lookups
system.switch_cpus00.rename.CommittedMaps    147034306                       # Number of HB maps that are committed
system.switch_cpus00.rename.UndoneMaps       34457746                       # Number of HB maps that are undone due to squashing
system.switch_cpus00.rename.serializingInsts        18597                       # count of serializing insts renamed
system.switch_cpus00.rename.tempSerializingInsts         9409                       # count of temporary serializing insts renamed
system.switch_cpus00.rename.skidInsts         1927466                       # count of insts added to the skid buffer
system.switch_cpus00.memDep0.insertedLoads     24958595                       # Number of loads inserted to the mem dependence unit.
system.switch_cpus00.memDep0.insertedStores      4066492                       # Number of stores inserted to the mem dependence unit.
system.switch_cpus00.memDep0.conflictingLoads        26484                       # Number of conflicting loads.
system.switch_cpus00.memDep0.conflictingStores       925949                       # Number of conflicting stores.
system.switch_cpus00.iq.iqInstsAdded        137759973                       # Number of instructions added to the IQ (excludes non-spec)
system.switch_cpus00.iq.iqNonSpecInstsAdded        18660                       # Number of non-speculative instructions added to the IQ
system.switch_cpus00.iq.iqInstsIssued       128945137                       # Number of instructions issued
system.switch_cpus00.iq.iqSquashedInstsIssued        82111                       # Number of squashed instructions issued
system.switch_cpus00.iq.iqSquashedInstsExamined     24989088                       # Number of squashed instructions iterated over during squash; mainly for profiling
system.switch_cpus00.iq.iqSquashedOperandsExamined     51203473                       # Number of squashed operands that are examined and possibly removed from graph
system.switch_cpus00.iq.iqSquashedNonSpecRemoved          126                       # Number of squashed non-spec instructions that were removed
system.switch_cpus00.iq.issued_per_cycle::samples    265530165                       # Number of insts issued each cycle
system.switch_cpus00.iq.issued_per_cycle::mean     0.485614                       # Number of insts issued each cycle
system.switch_cpus00.iq.issued_per_cycle::stdev     1.098510                       # Number of insts issued each cycle
system.switch_cpus00.iq.issued_per_cycle::underflows            0      0.00%      0.00% # Number of insts issued each cycle
system.switch_cpus00.iq.issued_per_cycle::0    209010307     78.71%     78.71% # Number of insts issued each cycle
system.switch_cpus00.iq.issued_per_cycle::1     17803307      6.70%     85.42% # Number of insts issued each cycle
system.switch_cpus00.iq.issued_per_cycle::2     18891396      7.11%     92.53% # Number of insts issued each cycle
system.switch_cpus00.iq.issued_per_cycle::3     10973170      4.13%     96.67% # Number of insts issued each cycle
system.switch_cpus00.iq.issued_per_cycle::4      5679047      2.14%     98.81% # Number of insts issued each cycle
system.switch_cpus00.iq.issued_per_cycle::5      1420301      0.53%     99.34% # Number of insts issued each cycle
system.switch_cpus00.iq.issued_per_cycle::6      1679905      0.63%     99.97% # Number of insts issued each cycle
system.switch_cpus00.iq.issued_per_cycle::7        39451      0.01%     99.99% # Number of insts issued each cycle
system.switch_cpus00.iq.issued_per_cycle::8        33281      0.01%    100.00% # Number of insts issued each cycle
system.switch_cpus00.iq.issued_per_cycle::overflows            0      0.00%    100.00% # Number of insts issued each cycle
system.switch_cpus00.iq.issued_per_cycle::min_value            0                       # Number of insts issued each cycle
system.switch_cpus00.iq.issued_per_cycle::max_value            8                       # Number of insts issued each cycle
system.switch_cpus00.iq.issued_per_cycle::total    265530165                       # Number of insts issued each cycle
system.switch_cpus00.iq.fu_full::No_OpClass            0      0.00%      0.00% # attempts to use FU when none available
system.switch_cpus00.iq.fu_full::IntAlu        215241     57.20%     57.20% # attempts to use FU when none available
system.switch_cpus00.iq.fu_full::IntMult            0      0.00%     57.20% # attempts to use FU when none available
system.switch_cpus00.iq.fu_full::IntDiv             0      0.00%     57.20% # attempts to use FU when none available
system.switch_cpus00.iq.fu_full::FloatAdd            0      0.00%     57.20% # attempts to use FU when none available
system.switch_cpus00.iq.fu_full::FloatCmp            0      0.00%     57.20% # attempts to use FU when none available
system.switch_cpus00.iq.fu_full::FloatCvt            0      0.00%     57.20% # attempts to use FU when none available
system.switch_cpus00.iq.fu_full::FloatMult            0      0.00%     57.20% # attempts to use FU when none available
system.switch_cpus00.iq.fu_full::FloatDiv            0      0.00%     57.20% # attempts to use FU when none available
system.switch_cpus00.iq.fu_full::FloatSqrt            0      0.00%     57.20% # attempts to use FU when none available
system.switch_cpus00.iq.fu_full::SimdAdd            0      0.00%     57.20% # attempts to use FU when none available
system.switch_cpus00.iq.fu_full::SimdAddAcc            0      0.00%     57.20% # attempts to use FU when none available
system.switch_cpus00.iq.fu_full::SimdAlu            0      0.00%     57.20% # attempts to use FU when none available
system.switch_cpus00.iq.fu_full::SimdCmp            0      0.00%     57.20% # attempts to use FU when none available
system.switch_cpus00.iq.fu_full::SimdCvt            0      0.00%     57.20% # attempts to use FU when none available
system.switch_cpus00.iq.fu_full::SimdMisc            0      0.00%     57.20% # attempts to use FU when none available
system.switch_cpus00.iq.fu_full::SimdMult            0      0.00%     57.20% # attempts to use FU when none available
system.switch_cpus00.iq.fu_full::SimdMultAcc            0      0.00%     57.20% # attempts to use FU when none available
system.switch_cpus00.iq.fu_full::SimdShift            0      0.00%     57.20% # attempts to use FU when none available
system.switch_cpus00.iq.fu_full::SimdShiftAcc            0      0.00%     57.20% # attempts to use FU when none available
system.switch_cpus00.iq.fu_full::SimdSqrt            0      0.00%     57.20% # attempts to use FU when none available
system.switch_cpus00.iq.fu_full::SimdFloatAdd            0      0.00%     57.20% # attempts to use FU when none available
system.switch_cpus00.iq.fu_full::SimdFloatAlu            0      0.00%     57.20% # attempts to use FU when none available
system.switch_cpus00.iq.fu_full::SimdFloatCmp            0      0.00%     57.20% # attempts to use FU when none available
system.switch_cpus00.iq.fu_full::SimdFloatCvt            0      0.00%     57.20% # attempts to use FU when none available
system.switch_cpus00.iq.fu_full::SimdFloatDiv            0      0.00%     57.20% # attempts to use FU when none available
system.switch_cpus00.iq.fu_full::SimdFloatMisc            0      0.00%     57.20% # attempts to use FU when none available
system.switch_cpus00.iq.fu_full::SimdFloatMult            0      0.00%     57.20% # attempts to use FU when none available
system.switch_cpus00.iq.fu_full::SimdFloatMultAcc            0      0.00%     57.20% # attempts to use FU when none available
system.switch_cpus00.iq.fu_full::SimdFloatSqrt            0      0.00%     57.20% # attempts to use FU when none available
system.switch_cpus00.iq.fu_full::MemRead        88120     23.42%     80.61% # attempts to use FU when none available
system.switch_cpus00.iq.fu_full::MemWrite        72960     19.39%    100.00% # attempts to use FU when none available
system.switch_cpus00.iq.fu_full::IprAccess            0      0.00%    100.00% # attempts to use FU when none available
system.switch_cpus00.iq.fu_full::InstPrefetch            0      0.00%    100.00% # attempts to use FU when none available
system.switch_cpus00.iq.FU_type_0::No_OpClass            0      0.00%      0.00% # Type of FU issued
system.switch_cpus00.iq.FU_type_0::IntAlu    101123417     78.42%     78.42% # Type of FU issued
system.switch_cpus00.iq.FU_type_0::IntMult      1013021      0.79%     79.21% # Type of FU issued
system.switch_cpus00.iq.FU_type_0::IntDiv            0      0.00%     79.21% # Type of FU issued
system.switch_cpus00.iq.FU_type_0::FloatAdd            0      0.00%     79.21% # Type of FU issued
system.switch_cpus00.iq.FU_type_0::FloatCmp            0      0.00%     79.21% # Type of FU issued
system.switch_cpus00.iq.FU_type_0::FloatCvt            0      0.00%     79.21% # Type of FU issued
system.switch_cpus00.iq.FU_type_0::FloatMult            0      0.00%     79.21% # Type of FU issued
system.switch_cpus00.iq.FU_type_0::FloatDiv            0      0.00%     79.21% # Type of FU issued
system.switch_cpus00.iq.FU_type_0::FloatSqrt            0      0.00%     79.21% # Type of FU issued
system.switch_cpus00.iq.FU_type_0::SimdAdd            0      0.00%     79.21% # Type of FU issued
system.switch_cpus00.iq.FU_type_0::SimdAddAcc            0      0.00%     79.21% # Type of FU issued
system.switch_cpus00.iq.FU_type_0::SimdAlu            0      0.00%     79.21% # Type of FU issued
system.switch_cpus00.iq.FU_type_0::SimdCmp            0      0.00%     79.21% # Type of FU issued
system.switch_cpus00.iq.FU_type_0::SimdCvt            0      0.00%     79.21% # Type of FU issued
system.switch_cpus00.iq.FU_type_0::SimdMisc            0      0.00%     79.21% # Type of FU issued
system.switch_cpus00.iq.FU_type_0::SimdMult            0      0.00%     79.21% # Type of FU issued
system.switch_cpus00.iq.FU_type_0::SimdMultAcc            0      0.00%     79.21% # Type of FU issued
system.switch_cpus00.iq.FU_type_0::SimdShift            0      0.00%     79.21% # Type of FU issued
system.switch_cpus00.iq.FU_type_0::SimdShiftAcc            0      0.00%     79.21% # Type of FU issued
system.switch_cpus00.iq.FU_type_0::SimdSqrt            0      0.00%     79.21% # Type of FU issued
system.switch_cpus00.iq.FU_type_0::SimdFloatAdd            0      0.00%     79.21% # Type of FU issued
system.switch_cpus00.iq.FU_type_0::SimdFloatAlu            0      0.00%     79.21% # Type of FU issued
system.switch_cpus00.iq.FU_type_0::SimdFloatCmp            0      0.00%     79.21% # Type of FU issued
system.switch_cpus00.iq.FU_type_0::SimdFloatCvt            0      0.00%     79.21% # Type of FU issued
system.switch_cpus00.iq.FU_type_0::SimdFloatDiv            0      0.00%     79.21% # Type of FU issued
system.switch_cpus00.iq.FU_type_0::SimdFloatMisc         9190      0.01%     79.22% # Type of FU issued
system.switch_cpus00.iq.FU_type_0::SimdFloatMult            0      0.00%     79.22% # Type of FU issued
system.switch_cpus00.iq.FU_type_0::SimdFloatMultAcc            0      0.00%     79.22% # Type of FU issued
system.switch_cpus00.iq.FU_type_0::SimdFloatSqrt            0      0.00%     79.22% # Type of FU issued
system.switch_cpus00.iq.FU_type_0::MemRead     22767508     17.66%     96.87% # Type of FU issued
system.switch_cpus00.iq.FU_type_0::MemWrite      4032001      3.13%    100.00% # Type of FU issued
system.switch_cpus00.iq.FU_type_0::IprAccess            0      0.00%    100.00% # Type of FU issued
system.switch_cpus00.iq.FU_type_0::InstPrefetch            0      0.00%    100.00% # Type of FU issued
system.switch_cpus00.iq.FU_type_0::total    128945137                       # Type of FU issued
system.switch_cpus00.iq.rate                 0.448192                       # Inst issue rate
system.switch_cpus00.iq.fu_busy_cnt            376321                       # FU busy when requested
system.switch_cpus00.iq.fu_busy_rate         0.002918                       # FU busy rate (busy events/executed inst)
system.switch_cpus00.iq.int_inst_queue_reads    523878870                       # Number of integer instruction queue reads
system.switch_cpus00.iq.int_inst_queue_writes    162768075                       # Number of integer instruction queue writes
system.switch_cpus00.iq.int_inst_queue_wakeup_accesses    125665258                       # Number of integer instruction queue wakeup accesses
system.switch_cpus00.iq.fp_inst_queue_reads            0                       # Number of floating instruction queue reads
system.switch_cpus00.iq.fp_inst_queue_writes            0                       # Number of floating instruction queue writes
system.switch_cpus00.iq.fp_inst_queue_wakeup_accesses            0                       # Number of floating instruction queue wakeup accesses
system.switch_cpus00.iq.int_alu_accesses    129321458                       # Number of integer alu accesses
system.switch_cpus00.iq.fp_alu_accesses             0                       # Number of floating point alu accesses
system.switch_cpus00.iew.lsq.thread0.forwLoads       102268                       # Number of loads that had data forwarded from stores
system.switch_cpus00.iew.lsq.thread0.invAddrLoads            0                       # Number of loads ignored due to an invalid address
system.switch_cpus00.iew.lsq.thread0.squashedLoads      5120529                       # Number of loads squashed
system.switch_cpus00.iew.lsq.thread0.ignoredResponses          123                       # Number of memory responses ignored because the instruction is squashed
system.switch_cpus00.iew.lsq.thread0.memOrderViolation          362                       # Number of memory ordering violations
system.switch_cpus00.iew.lsq.thread0.squashedStores       100547                       # Number of stores squashed
system.switch_cpus00.iew.lsq.thread0.invAddrSwpfs            0                       # Number of software prefetches ignored due to an invalid address
system.switch_cpus00.iew.lsq.thread0.blockedLoads            0                       # Number of blocked loads due to partial load-store forwarding
system.switch_cpus00.iew.lsq.thread0.rescheduledLoads            0                       # Number of loads that were rescheduled
system.switch_cpus00.iew.lsq.thread0.cacheBlocked            0                       # Number of times an access to memory failed due to the cache being blocked
system.switch_cpus00.iew.iewIdleCycles              0                       # Number of cycles IEW is idle
system.switch_cpus00.iew.iewSquashCycles      3955636                       # Number of cycles IEW is squashing
system.switch_cpus00.iew.iewBlockCycles       2492099                       # Number of cycles IEW is blocking
system.switch_cpus00.iew.iewUnblockCycles       104468                       # Number of cycles IEW is unblocking
system.switch_cpus00.iew.iewDispatchedInsts    137778720                       # Number of instructions dispatched to IQ
system.switch_cpus00.iew.iewDispSquashedInsts        18233                       # Number of squashed instructions skipped by dispatch
system.switch_cpus00.iew.iewDispLoadInsts     24958595                       # Number of dispatched load instructions
system.switch_cpus00.iew.iewDispStoreInsts      4066492                       # Number of dispatched store instructions
system.switch_cpus00.iew.iewDispNonSpecInsts         9402                       # Number of dispatched non-speculative instructions
system.switch_cpus00.iew.iewIQFullEvents        46162                       # Number of times the IQ has become full, causing a stall
system.switch_cpus00.iew.iewLSQFullEvents         2649                       # Number of times the LSQ has become full, causing a stall
system.switch_cpus00.iew.memOrderViolationEvents          362                       # Number of memory order violations
system.switch_cpus00.iew.predictedTakenIncorrect      1172672                       # Number of branches that were predicted taken incorrectly
system.switch_cpus00.iew.predictedNotTakenIncorrect       672442                       # Number of branches that were predicted not taken incorrectly
system.switch_cpus00.iew.branchMispredicts      1845114                       # Number of branch mispredicts detected at execute
system.switch_cpus00.iew.iewExecutedInsts    127316154                       # Number of executed instructions
system.switch_cpus00.iew.iewExecLoadInsts     22447168                       # Number of load instructions executed
system.switch_cpus00.iew.iewExecSquashedInsts      1628982                       # Number of squashed instructions skipped in execute
system.switch_cpus00.iew.exec_swp                   0                       # number of swp insts executed
system.switch_cpus00.iew.exec_nop                  87                       # number of nop insts executed
system.switch_cpus00.iew.exec_refs           26478991                       # number of memory reference insts executed
system.switch_cpus00.iew.exec_branches       19343489                       # Number of branches executed
system.switch_cpus00.iew.exec_stores          4031823                       # Number of stores executed
system.switch_cpus00.iew.exec_rate           0.442530                       # Inst execution rate
system.switch_cpus00.iew.wb_sent            125694045                       # cumulative count of insts sent to commit
system.switch_cpus00.iew.wb_count           125665258                       # cumulative count of insts written-back
system.switch_cpus00.iew.wb_producers        76023102                       # num instructions producing a value
system.switch_cpus00.iew.wb_consumers       165686983                       # num instructions consuming a value
system.switch_cpus00.iew.wb_penalized               0                       # number of instrctions required to write to 'other' IQ
system.switch_cpus00.iew.wb_rate             0.436792                       # insts written-back per cycle
system.switch_cpus00.iew.wb_fanout           0.458836                       # average fanout of values written-back
system.switch_cpus00.iew.wb_penalized_rate            0                       # fraction of instructions written-back that wrote to 'other' IQ
system.switch_cpus00.commit.commitCommittedInsts    100000000                       # The number of committed instructions
system.switch_cpus00.commit.commitCommittedOps    112615979                       # The number of committed instructions
system.switch_cpus00.commit.commitSquashedInsts     25168551                       # The number of squashed insts skipped by commit
system.switch_cpus00.commit.commitNonSpecStalls        18534                       # The number of times commit has been forced to stall to communicate backwards
system.switch_cpus00.commit.branchMispredicts      1729525                       # The number of times a branch was mispredicted
system.switch_cpus00.commit.committed_per_cycle::samples    261574529                       # Number of insts commited each cycle
system.switch_cpus00.commit.committed_per_cycle::mean     0.430531                       # Number of insts commited each cycle
system.switch_cpus00.commit.committed_per_cycle::stdev     1.300643                       # Number of insts commited each cycle
system.switch_cpus00.commit.committed_per_cycle::underflows            0      0.00%      0.00% # Number of insts commited each cycle
system.switch_cpus00.commit.committed_per_cycle::0    219618872     83.96%     83.96% # Number of insts commited each cycle
system.switch_cpus00.commit.committed_per_cycle::1     16497121      6.31%     90.27% # Number of insts commited each cycle
system.switch_cpus00.commit.committed_per_cycle::2     10569918      4.04%     94.31% # Number of insts commited each cycle
system.switch_cpus00.commit.committed_per_cycle::3      3352360      1.28%     95.59% # Number of insts commited each cycle
system.switch_cpus00.commit.committed_per_cycle::4      5531777      2.11%     97.70% # Number of insts commited each cycle
system.switch_cpus00.commit.committed_per_cycle::5      1080425      0.41%     98.12% # Number of insts commited each cycle
system.switch_cpus00.commit.committed_per_cycle::6       686278      0.26%     98.38% # Number of insts commited each cycle
system.switch_cpus00.commit.committed_per_cycle::7       627183      0.24%     98.62% # Number of insts commited each cycle
system.switch_cpus00.commit.committed_per_cycle::8      3610595      1.38%    100.00% # Number of insts commited each cycle
system.switch_cpus00.commit.committed_per_cycle::overflows            0      0.00%    100.00% # Number of insts commited each cycle
system.switch_cpus00.commit.committed_per_cycle::min_value            0                       # Number of insts commited each cycle
system.switch_cpus00.commit.committed_per_cycle::max_value            8                       # Number of insts commited each cycle
system.switch_cpus00.commit.committed_per_cycle::total    261574529                       # Number of insts commited each cycle
system.switch_cpus00.commit.committedInsts    100000000                       # Number of instructions committed
system.switch_cpus00.commit.committedOps    112615979                       # Number of ops (including micro ops) committed
system.switch_cpus00.commit.swp_count               0                       # Number of s/w prefetches committed
system.switch_cpus00.commit.refs             23804005                       # Number of memory references committed
system.switch_cpus00.commit.loads            19838060                       # Number of loads committed
system.switch_cpus00.commit.membars              9247                       # Number of memory barriers committed
system.switch_cpus00.commit.branches         17267929                       # Number of branches committed
system.switch_cpus00.commit.fp_insts                0                       # Number of committed floating point instructions.
system.switch_cpus00.commit.int_insts        98436174                       # Number of committed integer instructions.
system.switch_cpus00.commit.function_calls      1412128                       # Number of function calls committed.
system.switch_cpus00.commit.bw_lim_events      3610595                       # number cycles where commit BW limit reached
system.switch_cpus00.commit.bw_limited              0                       # number of insts not committed due to BW limits
system.switch_cpus00.rob.rob_reads          395748087                       # The number of ROB reads
system.switch_cpus00.rob.rob_writes         279527875                       # The number of ROB writes
system.switch_cpus00.timesIdled               5133830                       # Number of times that the entire CPU went into an idle state and unscheduled itself
system.switch_cpus00.idleCycles              22170200                       # Total number of cycles that the CPU has spent unscheduled due to idling
system.switch_cpus00.committedInsts         100000000                       # Number of Instructions Simulated
system.switch_cpus00.committedOps           112615979                       # Number of Ops (including micro ops) Simulated
system.switch_cpus00.committedInsts_total    100000000                       # Number of Instructions Simulated
system.switch_cpus00.cpi                     2.877004                       # CPI: Cycles Per Instruction
system.switch_cpus00.cpi_total               2.877004                       # CPI: Total CPI of All Threads
system.switch_cpus00.ipc                     0.347584                       # IPC: Instructions Per Cycle
system.switch_cpus00.ipc_total               0.347584                       # IPC: Total IPC of All Threads
system.switch_cpus00.int_regfile_reads      591749145                       # number of integer regfile reads
system.switch_cpus00.int_regfile_writes     163752675                       # number of integer regfile writes
system.switch_cpus00.misc_regfile_reads     147232561                       # number of misc regfile reads
system.switch_cpus00.misc_regfile_writes        18516                       # number of misc regfile writes
system.switch_cpus01.dtb.inst_hits                  0                       # ITB inst hits
system.switch_cpus01.dtb.inst_misses                0                       # ITB inst misses
system.switch_cpus01.dtb.read_hits                  0                       # DTB read hits
system.switch_cpus01.dtb.read_misses                0                       # DTB read misses
system.switch_cpus01.dtb.write_hits                 0                       # DTB write hits
system.switch_cpus01.dtb.write_misses               0                       # DTB write misses
system.switch_cpus01.dtb.flush_tlb                  0                       # Number of times complete TLB was flushed
system.switch_cpus01.dtb.flush_tlb_mva              0                       # Number of times TLB was flushed by MVA
system.switch_cpus01.dtb.flush_tlb_mva_asid            0                       # Number of times TLB was flushed by MVA & ASID
system.switch_cpus01.dtb.flush_tlb_asid             0                       # Number of times TLB was flushed by ASID
system.switch_cpus01.dtb.flush_entries              0                       # Number of entries that have been flushed from TLB
system.switch_cpus01.dtb.align_faults               0                       # Number of TLB faults due to alignment restrictions
system.switch_cpus01.dtb.prefetch_faults            0                       # Number of TLB faults due to prefetch
system.switch_cpus01.dtb.domain_faults              0                       # Number of TLB faults due to domain restrictions
system.switch_cpus01.dtb.perms_faults               0                       # Number of TLB faults due to permissions restrictions
system.switch_cpus01.dtb.read_accesses              0                       # DTB read accesses
system.switch_cpus01.dtb.write_accesses             0                       # DTB write accesses
system.switch_cpus01.dtb.inst_accesses              0                       # ITB inst accesses
system.switch_cpus01.dtb.hits                       0                       # DTB hits
[...]
system.cpu15.icache.demand_avg_miss_latency::total 172444.433962                       # average overall miss latency
system.cpu15.icache.overall_avg_miss_latency::switch_cpus15.inst 172444.433962                       # average overall miss latency
system.cpu15.icache.overall_avg_miss_latency::total 172444.433962                       # average overall miss latency
system.cpu15.icache.blocked_cycles::no_mshrs            0                       # number of cycles access was blocked
system.cpu15.icache.blocked_cycles::no_targets            0                       # number of cycles access was blocked
system.cpu15.icache.blocked::no_mshrs               0                       # number of cycles access was blocked
system.cpu15.icache.blocked::no_targets             0                       # number of cycles access was blocked
system.cpu15.icache.avg_blocked_cycles::no_mshrs          nan                       # average number of cycles each access was blocked
system.cpu15.icache.avg_blocked_cycles::no_targets          nan                       # average number of cycles each access was blocked
system.cpu15.icache.fast_writes                     0                       # number of fast writes performed
system.cpu15.icache.cache_copies                    0                       # number of cache copies performed
system.cpu15.icache.ReadReq_mshr_hits::switch_cpus15.inst           14                       # number of ReadReq MSHR hits
system.cpu15.icache.ReadReq_mshr_hits::total           14                       # number of ReadReq MSHR hits
system.cpu15.icache.demand_mshr_hits::switch_cpus15.inst           14                       # number of demand (read+write) MSHR hits
system.cpu15.icache.demand_mshr_hits::total           14                       # number of demand (read+write) MSHR hits
system.cpu15.icache.overall_mshr_hits::switch_cpus15.inst           14                       # number of overall MSHR hits
system.cpu15.icache.overall_mshr_hits::total           14                       # number of overall MSHR hits
system.cpu15.icache.ReadReq_mshr_misses::switch_cpus15.inst           39                       # number of ReadReq MSHR misses
system.cpu15.icache.ReadReq_mshr_misses::total           39                       # number of ReadReq MSHR misses
system.cpu15.icache.demand_mshr_misses::switch_cpus15.inst           39                       # number of demand (read+write) MSHR misses
system.cpu15.icache.demand_mshr_misses::total           39                       # number of demand (read+write) MSHR misses
system.cpu15.icache.overall_mshr_misses::switch_cpus15.inst           39                       # number of overall MSHR misses
system.cpu15.icache.overall_mshr_misses::total           39                       # number of overall MSHR misses
system.cpu15.icache.ReadReq_mshr_miss_latency::switch_cpus15.inst      7179019                       # number of ReadReq MSHR miss cycles
system.cpu15.icache.ReadReq_mshr_miss_latency::total      7179019                       # number of ReadReq MSHR miss cycles
system.cpu15.icache.demand_mshr_miss_latency::switch_cpus15.inst      7179019                       # number of demand (read+write) MSHR miss cycles
system.cpu15.icache.demand_mshr_miss_latency::total      7179019                       # number of demand (read+write) MSHR miss cycles
system.cpu15.icache.overall_mshr_miss_latency::switch_cpus15.inst      7179019                       # number of overall MSHR miss cycles
system.cpu15.icache.overall_mshr_miss_latency::total      7179019                       # number of overall MSHR miss cycles
system.cpu15.icache.ReadReq_mshr_miss_rate::switch_cpus15.inst     0.000003                       # mshr miss rate for ReadReq accesses
system.cpu15.icache.ReadReq_mshr_miss_rate::total     0.000003                       # mshr miss rate for ReadReq accesses
system.cpu15.icache.demand_mshr_miss_rate::switch_cpus15.inst     0.000003                       # mshr miss rate for demand accesses
system.cpu15.icache.demand_mshr_miss_rate::total     0.000003                       # mshr miss rate for demand accesses
system.cpu15.icache.overall_mshr_miss_rate::switch_cpus15.inst     0.000003                       # mshr miss rate for overall accesses
system.cpu15.icache.overall_mshr_miss_rate::total     0.000003                       # mshr miss rate for overall accesses
system.cpu15.icache.ReadReq_avg_mshr_miss_latency::switch_cpus15.inst 184077.410256                       # average ReadReq mshr miss latency
system.cpu15.icache.ReadReq_avg_mshr_miss_latency::total 184077.410256                       # average ReadReq mshr miss latency
system.cpu15.icache.demand_avg_mshr_miss_latency::switch_cpus15.inst 184077.410256                       # average overall mshr miss latency
system.cpu15.icache.demand_avg_mshr_miss_latency::total 184077.410256                       # average overall mshr miss latency
system.cpu15.icache.overall_avg_mshr_miss_latency::switch_cpus15.inst 184077.410256                       # average overall mshr miss latency
system.cpu15.icache.overall_avg_mshr_miss_latency::total 184077.410256                       # average overall mshr miss latency
system.cpu15.icache.no_allocate_misses              0                       # Number of misses that were no-allocate
system.cpu15.dcache.replacements                82044                       # number of replacements
system.cpu15.dcache.tagsinuse                     256                       # Cycle average of tags in use
system.cpu15.dcache.total_refs              194775725                       # Total number of references to valid blocks.
system.cpu15.dcache.sampled_refs                82300                       # Sample count of references to valid blocks.
system.cpu15.dcache.avg_refs              2366.655225                       # Average number of references to valid blocks.
system.cpu15.dcache.warmup_cycle                    0                       # Cycle when the warmup percentage was hit.
system.cpu15.dcache.occ_blocks::switch_cpus15.data   234.380193                       # Average occupied blocks per requestor
system.cpu15.dcache.occ_blocks::cpu15.data    21.619807                       # Average occupied blocks per requestor
system.cpu15.dcache.occ_percent::switch_cpus15.data     0.915548                       # Average percentage of cache occupancy
system.cpu15.dcache.occ_percent::cpu15.data     0.084452                       # Average percentage of cache occupancy
system.cpu15.dcache.occ_percent::total              1                       # Average percentage of cache occupancy
system.cpu15.dcache.ReadReq_hits::switch_cpus15.data      9632442                       # number of ReadReq hits
system.cpu15.dcache.ReadReq_hits::total       9632442                       # number of ReadReq hits
system.cpu15.dcache.WriteReq_hits::switch_cpus15.data      7982765                       # number of WriteReq hits
system.cpu15.dcache.WriteReq_hits::total      7982765                       # number of WriteReq hits
system.cpu15.dcache.LoadLockedReq_hits::switch_cpus15.data        22227                       # number of LoadLockedReq hits
system.cpu15.dcache.LoadLockedReq_hits::total        22227                       # number of LoadLockedReq hits
system.cpu15.dcache.StoreCondReq_hits::switch_cpus15.data        18625                       # number of StoreCondReq hits
system.cpu15.dcache.StoreCondReq_hits::total        18625                       # number of StoreCondReq hits
system.cpu15.dcache.demand_hits::switch_cpus15.data     17615207                       # number of demand (read+write) hits
system.cpu15.dcache.demand_hits::total       17615207                       # number of demand (read+write) hits
system.cpu15.dcache.overall_hits::switch_cpus15.data     17615207                       # number of overall hits
system.cpu15.dcache.overall_hits::total      17615207                       # number of overall hits
system.cpu15.dcache.ReadReq_misses::switch_cpus15.data       208962                       # number of ReadReq misses
system.cpu15.dcache.ReadReq_misses::total       208962                       # number of ReadReq misses
system.cpu15.dcache.WriteReq_misses::switch_cpus15.data          918                       # number of WriteReq misses
system.cpu15.dcache.WriteReq_misses::total          918                       # number of WriteReq misses
system.cpu15.dcache.demand_misses::switch_cpus15.data       209880                       # number of demand (read+write) misses
system.cpu15.dcache.demand_misses::total       209880                       # number of demand (read+write) misses
system.cpu15.dcache.overall_misses::switch_cpus15.data       209880                       # number of overall misses
system.cpu15.dcache.overall_misses::total       209880                       # number of overall misses
system.cpu15.dcache.ReadReq_miss_latency::switch_cpus15.data  26260808949                       # number of ReadReq miss cycles
system.cpu15.dcache.ReadReq_miss_latency::total  26260808949                       # number of ReadReq miss cycles
system.cpu15.dcache.WriteReq_miss_latency::switch_cpus15.data     81056875                       # number of WriteReq miss cycles
system.cpu15.dcache.WriteReq_miss_latency::total     81056875                       # number of WriteReq miss cycles
system.cpu15.dcache.demand_miss_latency::switch_cpus15.data  26341865824                       # number of demand (read+write) miss cycles
system.cpu15.dcache.demand_miss_latency::total  26341865824                       # number of demand (read+write) miss cycles
system.cpu15.dcache.overall_miss_latency::switch_cpus15.data  26341865824                       # number of overall miss cycles
system.cpu15.dcache.overall_miss_latency::total  26341865824                       # number of overall miss cycles
system.cpu15.dcache.ReadReq_accesses::switch_cpus15.data      9841404                       # number of ReadReq accesses(hits+misses)
system.cpu15.dcache.ReadReq_accesses::total      9841404                       # number of ReadReq accesses(hits+misses)
system.cpu15.dcache.WriteReq_accesses::switch_cpus15.data      7983683                       # number of WriteReq accesses(hits+misses)
system.cpu15.dcache.WriteReq_accesses::total      7983683                       # number of WriteReq accesses(hits+misses)
system.cpu15.dcache.LoadLockedReq_accesses::switch_cpus15.data        22227                       # number of LoadLockedReq accesses(hits+misses)
system.cpu15.dcache.LoadLockedReq_accesses::total        22227                       # number of LoadLockedReq accesses(hits+misses)
system.cpu15.dcache.StoreCondReq_accesses::switch_cpus15.data        18625                       # number of StoreCondReq accesses(hits+misses)
system.cpu15.dcache.StoreCondReq_accesses::total        18625                       # number of StoreCondReq accesses(hits+misses)
system.cpu15.dcache.demand_accesses::switch_cpus15.data     17825087                       # number of demand (read+write) accesses
system.cpu15.dcache.demand_accesses::total     17825087                       # number of demand (read+write) accesses
system.cpu15.dcache.overall_accesses::switch_cpus15.data     17825087                       # number of overall (read+write) accesses
system.cpu15.dcache.overall_accesses::total     17825087                       # number of overall (read+write) accesses
system.cpu15.dcache.ReadReq_miss_rate::switch_cpus15.data     0.021233                       # miss rate for ReadReq accesses
system.cpu15.dcache.ReadReq_miss_rate::total     0.021233                       # miss rate for ReadReq accesses
system.cpu15.dcache.WriteReq_miss_rate::switch_cpus15.data     0.000115                       # miss rate for WriteReq accesses
system.cpu15.dcache.WriteReq_miss_rate::total     0.000115                       # miss rate for WriteReq accesses
system.cpu15.dcache.demand_miss_rate::switch_cpus15.data     0.011774                       # miss rate for demand accesses
system.cpu15.dcache.demand_miss_rate::total     0.011774                       # miss rate for demand accesses
system.cpu15.dcache.overall_miss_rate::switch_cpus15.data     0.011774                       # miss rate for overall accesses
system.cpu15.dcache.overall_miss_rate::total     0.011774                       # miss rate for overall accesses
system.cpu15.dcache.ReadReq_avg_miss_latency::switch_cpus15.data 125672.653157                       # average ReadReq miss latency
system.cpu15.dcache.ReadReq_avg_miss_latency::total 125672.653157                       # average ReadReq miss latency
system.cpu15.dcache.WriteReq_avg_miss_latency::switch_cpus15.data 88297.249455                       # average WriteReq miss latency
system.cpu15.dcache.WriteReq_avg_miss_latency::total 88297.249455                       # average WriteReq miss latency
system.cpu15.dcache.demand_avg_miss_latency::switch_cpus15.data 125509.175834                       # average overall miss latency
system.cpu15.dcache.demand_avg_miss_latency::total 125509.175834                       # average overall miss latency
system.cpu15.dcache.overall_avg_miss_latency::switch_cpus15.data 125509.175834                       # average overall miss latency
system.cpu15.dcache.overall_avg_miss_latency::total 125509.175834                       # average overall miss latency
system.cpu15.dcache.blocked_cycles::no_mshrs            0                       # number of cycles access was blocked
system.cpu15.dcache.blocked_cycles::no_targets            0                       # number of cycles access was blocked
system.cpu15.dcache.blocked::no_mshrs               0                       # number of cycles access was blocked
system.cpu15.dcache.blocked::no_targets             0                       # number of cycles access was blocked
system.cpu15.dcache.avg_blocked_cycles::no_mshrs          nan                       # average number of cycles each access was blocked
system.cpu15.dcache.avg_blocked_cycles::no_targets          nan                       # average number of cycles each access was blocked
system.cpu15.dcache.fast_writes                     0                       # number of fast writes performed
system.cpu15.dcache.cache_copies                    0                       # number of cache copies performed
system.cpu15.dcache.writebacks::writebacks         9683                       # number of writebacks
system.cpu15.dcache.writebacks::total            9683                       # number of writebacks
system.cpu15.dcache.ReadReq_mshr_hits::switch_cpus15.data       127070                       # number of ReadReq MSHR hits
system.cpu15.dcache.ReadReq_mshr_hits::total       127070                       # number of ReadReq MSHR hits
system.cpu15.dcache.WriteReq_mshr_hits::switch_cpus15.data          766                       # number of WriteReq MSHR hits
system.cpu15.dcache.WriteReq_mshr_hits::total          766                       # number of WriteReq MSHR hits
system.cpu15.dcache.demand_mshr_hits::switch_cpus15.data       127836                       # number of demand (read+write) MSHR hits
system.cpu15.dcache.demand_mshr_hits::total       127836                       # number of demand (read+write) MSHR hits
system.cpu15.dcache.overall_mshr_hits::switch_cpus15.data       127836                       # number of overall MSHR hits
system.cpu15.dcache.overall_mshr_hits::total       127836                       # number of overall MSHR hits
system.cpu15.dcache.ReadReq_mshr_misses::switch_cpus15.data        81892                       # number of ReadReq MSHR misses
system.cpu15.dcache.ReadReq_mshr_misses::total        81892                       # number of ReadReq MSHR misses
system.cpu15.dcache.WriteReq_mshr_misses::switch_cpus15.data          152                       # number of WriteReq MSHR misses
system.cpu15.dcache.WriteReq_mshr_misses::total          152                       # number of WriteReq MSHR misses
system.cpu15.dcache.demand_mshr_misses::switch_cpus15.data        82044                       # number of demand (read+write) MSHR misses
system.cpu15.dcache.demand_mshr_misses::total        82044                       # number of demand (read+write) MSHR misses
system.cpu15.dcache.overall_mshr_misses::switch_cpus15.data        82044                       # number of overall MSHR misses
system.cpu15.dcache.overall_mshr_misses::total        82044                       # number of overall MSHR misses
system.cpu15.dcache.ReadReq_mshr_miss_latency::switch_cpus15.data   9352661477                       # number of ReadReq MSHR miss cycles
system.cpu15.dcache.ReadReq_mshr_miss_latency::total   9352661477                       # number of ReadReq MSHR miss cycles
system.cpu15.dcache.WriteReq_mshr_miss_latency::switch_cpus15.data     10461611                       # number of WriteReq MSHR miss cycles
system.cpu15.dcache.WriteReq_mshr_miss_latency::total     10461611                       # number of WriteReq MSHR miss cycles
system.cpu15.dcache.demand_mshr_miss_latency::switch_cpus15.data   9363123088                       # number of demand (read+write) MSHR miss cycles
system.cpu15.dcache.demand_mshr_miss_latency::total   9363123088                       # number of demand (read+write) MSHR miss cycles
system.cpu15.dcache.overall_mshr_miss_latency::switch_cpus15.data   9363123088                       # number of overall MSHR miss cycles
system.cpu15.dcache.overall_mshr_miss_latency::total   9363123088                       # number of overall MSHR miss cycles
system.cpu15.dcache.ReadReq_mshr_miss_rate::switch_cpus15.data     0.008321                       # mshr miss rate for ReadReq accesses
system.cpu15.dcache.ReadReq_mshr_miss_rate::total     0.008321                       # mshr miss rate for ReadReq accesses
system.cpu15.dcache.WriteReq_mshr_miss_rate::switch_cpus15.data     0.000019                       # mshr miss rate for WriteReq accesses
system.cpu15.dcache.WriteReq_mshr_miss_rate::total     0.000019                       # mshr miss rate for WriteReq accesses
system.cpu15.dcache.demand_mshr_miss_rate::switch_cpus15.data     0.004603                       # mshr miss rate for demand accesses
system.cpu15.dcache.demand_mshr_miss_rate::total     0.004603                       # mshr miss rate for demand accesses
system.cpu15.dcache.overall_mshr_miss_rate::switch_cpus15.data     0.004603                       # mshr miss rate for overall accesses
system.cpu15.dcache.overall_mshr_miss_rate::total     0.004603                       # mshr miss rate for overall accesses
system.cpu15.dcache.ReadReq_avg_mshr_miss_latency::switch_cpus15.data 114207.266607                       # average ReadReq mshr miss latency
system.cpu15.dcache.ReadReq_avg_mshr_miss_latency::total 114207.266607                       # average ReadReq mshr miss latency
system.cpu15.dcache.WriteReq_avg_mshr_miss_latency::switch_cpus15.data 68826.388158                       # average WriteReq mshr miss latency
system.cpu15.dcache.WriteReq_avg_mshr_miss_latency::total 68826.388158                       # average WriteReq mshr miss latency
system.cpu15.dcache.demand_avg_mshr_miss_latency::switch_cpus15.data 114123.191068                       # average overall mshr miss latency
system.cpu15.dcache.demand_avg_mshr_miss_latency::total 114123.191068                       # average overall mshr miss latency
system.cpu15.dcache.overall_avg_mshr_miss_latency::switch_cpus15.data 114123.191068                       # average overall mshr miss latency
system.cpu15.dcache.overall_avg_mshr_miss_latency::total 114123.191068                       # average overall mshr miss latency
system.cpu15.dcache.no_allocate_misses              0                       # Number of misses that were no-allocate

---------- End Simulation Statistics   ----------
