
---------- Begin Simulation Statistics ----------
sim_seconds                                  0.117542                       # Number of seconds simulated
sim_ticks                                117542093925                       # Number of ticks simulated
final_tick                               644644156833                       # Number of ticks from beginning of simulation (restored from checkpoints and never reset)
sim_freq                                 1000000000000                       # Frequency of simulated ticks
host_inst_rate                                 296446                       # Simulator instruction rate (inst/s)
host_op_rate                                   374728                       # Simulator op (including micro ops) rate (op/s)
host_tick_rate                                1984104                       # Simulator tick rate (ticks/s)
host_mem_usage                               67747708                       # Number of bytes of host memory used
host_seconds                                 59241.90                       # Real time elapsed on the host
sim_insts                                 17562025193                       # Number of instructions simulated
sim_ops                                   22199572690                       # Number of ops (including micro ops) simulated
system.physmem.bytes_read::switch_cpus00.inst         4608                       # Number of bytes read from this memory
system.physmem.bytes_read::switch_cpus00.data      2499328                       # Number of bytes read from this memory
system.physmem.bytes_read::switch_cpus01.inst         5376                       # Number of bytes read from this memory
system.physmem.bytes_read::switch_cpus01.data      4657280                       # Number of bytes read from this memory
system.physmem.bytes_read::switch_cpus02.inst         4352                       # Number of bytes read from this memory
system.physmem.bytes_read::switch_cpus02.data      2444160                       # Number of bytes read from this memory
system.physmem.bytes_read::switch_cpus03.inst         5376                       # Number of bytes read from this memory
system.physmem.bytes_read::switch_cpus03.data      1620608                       # Number of bytes read from this memory
system.physmem.bytes_read::switch_cpus04.inst         5504                       # Number of bytes read from this memory
system.physmem.bytes_read::switch_cpus04.data      1623424                       # Number of bytes read from this memory
system.physmem.bytes_read::switch_cpus05.inst         5376                       # Number of bytes read from this memory
system.physmem.bytes_read::switch_cpus05.data      4671488                       # Number of bytes read from this memory
system.physmem.bytes_read::switch_cpus06.inst         4352                       # Number of bytes read from this memory
system.physmem.bytes_read::switch_cpus06.data      2441344                       # Number of bytes read from this memory
system.physmem.bytes_read::switch_cpus07.inst         5504                       # Number of bytes read from this memory
system.physmem.bytes_read::switch_cpus07.data      4666112                       # Number of bytes read from this memory
system.physmem.bytes_read::switch_cpus08.inst         5376                       # Number of bytes read from this memory
system.physmem.bytes_read::switch_cpus08.data      1620864                       # Number of bytes read from this memory
system.physmem.bytes_read::switch_cpus09.inst         4608                       # Number of bytes read from this memory
system.physmem.bytes_read::switch_cpus09.data      2496000                       # Number of bytes read from this memory
system.physmem.bytes_read::switch_cpus10.inst         5376                       # Number of bytes read from this memory
system.physmem.bytes_read::switch_cpus10.data      1622400                       # Number of bytes read from this memory
system.physmem.bytes_read::switch_cpus11.inst         4352                       # Number of bytes read from this memory
system.physmem.bytes_read::switch_cpus11.data      1157376                       # Number of bytes read from this memory
system.physmem.bytes_read::switch_cpus12.inst         4608                       # Number of bytes read from this memory
system.physmem.bytes_read::switch_cpus12.data      2513792                       # Number of bytes read from this memory
system.physmem.bytes_read::switch_cpus13.inst         5248                       # Number of bytes read from this memory
system.physmem.bytes_read::switch_cpus13.data      3944576                       # Number of bytes read from this memory
system.physmem.bytes_read::switch_cpus14.inst         4608                       # Number of bytes read from this memory
system.physmem.bytes_read::switch_cpus14.data      2502656                       # Number of bytes read from this memory
system.physmem.bytes_read::switch_cpus15.inst         5376                       # Number of bytes read from this memory
system.physmem.bytes_read::switch_cpus15.data      1622400                       # Number of bytes read from this memory
system.physmem.bytes_read::total             42183808                       # Number of bytes read from this memory
system.physmem.bytes_inst_read::switch_cpus00.inst         4608                       # Number of instructions bytes read from this memory
system.physmem.bytes_inst_read::switch_cpus01.inst         5376                       # Number of instructions bytes read from this memory
system.physmem.bytes_inst_read::switch_cpus02.inst         4352                       # Number of instructions bytes read from this memory
system.physmem.bytes_inst_read::switch_cpus03.inst         5376                       # Number of instructions bytes read from this memory
system.physmem.bytes_inst_read::switch_cpus04.inst         5504                       # Number of instructions bytes read from this memory
system.physmem.bytes_inst_read::switch_cpus05.inst         5376                       # Number of instructions bytes read from this memory
system.physmem.bytes_inst_read::switch_cpus06.inst         4352                       # Number of instructions bytes read from this memory
system.physmem.bytes_inst_read::switch_cpus07.inst         5504                       # Number of instructions bytes read from this memory
system.physmem.bytes_inst_read::switch_cpus08.inst         5376                       # Number of instructions bytes read from this memory
system.physmem.bytes_inst_read::switch_cpus09.inst         4608                       # Number of instructions bytes read from this memory
system.physmem.bytes_inst_read::switch_cpus10.inst         5376                       # Number of instructions bytes read from this memory
system.physmem.bytes_inst_read::switch_cpus11.inst         4352                       # Number of instructions bytes read from this memory
system.physmem.bytes_inst_read::switch_cpus12.inst         4608                       # Number of instructions bytes read from this memory
system.physmem.bytes_inst_read::switch_cpus13.inst         5248                       # Number of instructions bytes read from this memory
system.physmem.bytes_inst_read::switch_cpus14.inst         4608                       # Number of instructions bytes read from this memory
system.physmem.bytes_inst_read::switch_cpus15.inst         5376                       # Number of instructions bytes read from this memory
system.physmem.bytes_inst_read::total           80000                       # Number of instructions bytes read from this memory
system.physmem.bytes_written::writebacks     13035392                       # Number of bytes written to this memory
system.physmem.bytes_written::total          13035392                       # Number of bytes written to this memory
system.physmem.num_reads::switch_cpus00.inst           36                       # Number of read requests responded to by this memory
system.physmem.num_reads::switch_cpus00.data        19526                       # Number of read requests responded to by this memory
system.physmem.num_reads::switch_cpus01.inst           42                       # Number of read requests responded to by this memory
system.physmem.num_reads::switch_cpus01.data        36385                       # Number of read requests responded to by this memory
system.physmem.num_reads::switch_cpus02.inst           34                       # Number of read requests responded to by this memory
system.physmem.num_reads::switch_cpus02.data        19095                       # Number of read requests responded to by this memory
system.physmem.num_reads::switch_cpus03.inst           42                       # Number of read requests responded to by this memory
system.physmem.num_reads::switch_cpus03.data        12661                       # Number of read requests responded to by this memory
system.physmem.num_reads::switch_cpus04.inst           43                       # Number of read requests responded to by this memory
system.physmem.num_reads::switch_cpus04.data        12683                       # Number of read requests responded to by this memory
system.physmem.num_reads::switch_cpus05.inst           42                       # Number of read requests responded to by this memory
system.physmem.num_reads::switch_cpus05.data        36496                       # Number of read requests responded to by this memory
system.physmem.num_reads::switch_cpus06.inst           34                       # Number of read requests responded to by this memory
system.physmem.num_reads::switch_cpus06.data        19073                       # Number of read requests responded to by this memory
system.physmem.num_reads::switch_cpus07.inst           43                       # Number of read requests responded to by this memory
system.physmem.num_reads::switch_cpus07.data        36454                       # Number of read requests responded to by this memory
system.physmem.num_reads::switch_cpus08.inst           42                       # Number of read requests responded to by this memory
system.physmem.num_reads::switch_cpus08.data        12663                       # Number of read requests responded to by this memory
system.physmem.num_reads::switch_cpus09.inst           36                       # Number of read requests responded to by this memory
system.physmem.num_reads::switch_cpus09.data        19500                       # Number of read requests responded to by this memory
system.physmem.num_reads::switch_cpus10.inst           42                       # Number of read requests responded to by this memory
system.physmem.num_reads::switch_cpus10.data        12675                       # Number of read requests responded to by this memory
system.physmem.num_reads::switch_cpus11.inst           34                       # Number of read requests responded to by this memory
system.physmem.num_reads::switch_cpus11.data         9042                       # Number of read requests responded to by this memory
system.physmem.num_reads::switch_cpus12.inst           36                       # Number of read requests responded to by this memory
system.physmem.num_reads::switch_cpus12.data        19639                       # Number of read requests responded to by this memory
system.physmem.num_reads::switch_cpus13.inst           41                       # Number of read requests responded to by this memory
system.physmem.num_reads::switch_cpus13.data        30817                       # Number of read requests responded to by this memory
system.physmem.num_reads::switch_cpus14.inst           36                       # Number of read requests responded to by this memory
system.physmem.num_reads::switch_cpus14.data        19552                       # Number of read requests responded to by this memory
system.physmem.num_reads::switch_cpus15.inst           42                       # Number of read requests responded to by this memory
system.physmem.num_reads::switch_cpus15.data        12675                       # Number of read requests responded to by this memory
system.physmem.num_reads::total                329561                       # Number of read requests responded to by this memory
system.physmem.num_writes::writebacks          101839                       # Number of write requests responded to by this memory
system.physmem.num_writes::functional               0                       # Number of write requests responded to by this memory
system.physmem.num_writes::interrupt                0                       # Number of write requests responded to by this memory
system.physmem.num_writes::switch_cpus00.dtb.walker            0                       # Number of write requests responded to by this memory
system.physmem.num_writes::switch_cpus00.itb.walker            0                       # Number of write requests responded to by this memory
system.physmem.num_writes::switch_cpus00.inst            0                       # Number of write requests responded to by this memory
system.physmem.num_writes::switch_cpus00.data            0                       # Number of write requests responded to by this memory
system.physmem.num_writes::switch_cpus01.dtb.walker            0                       # Number of write requests responded to by this memory
system.physmem.num_writes::switch_cpus01.itb.walker            0                       # Number of write requests responded to by this memory
system.physmem.num_writes::switch_cpus01.inst            0                       # Number of write requests responded to by this memory
system.physmem.num_writes::switch_cpus01.data            0                       # Number of write requests responded to by this memory
system.physmem.num_writes::switch_cpus02.dtb.walker            0                       # Number of write requests responded to by this memory
system.physmem.num_writes::switch_cpus02.itb.walker            0                       # Number of write requests responded to by this memory
system.physmem.num_writes::switch_cpus02.inst            0                       # Number of write requests responded to by this memory
system.physmem.num_writes::switch_cpus02.data            0                       # Number of write requests responded to by this memory
system.physmem.num_writes::switch_cpus03.dtb.walker            0                       # Number of write requests responded to by this memory
system.physmem.num_writes::switch_cpus03.itb.walker            0                       # Number of write requests responded to by this memory
system.physmem.num_writes::switch_cpus03.inst            0                       # Number of write requests responded to by this memory
system.physmem.num_writes::switch_cpus03.data            0                       # Number of write requests responded to by this memory
system.physmem.num_writes::switch_cpus04.dtb.walker            0                       # Number of write requests responded to by this memory
system.physmem.num_writes::switch_cpus04.itb.walker            0                       # Number of write requests responded to by this memory
system.physmem.num_writes::switch_cpus04.inst            0                       # Number of write requests responded to by this memory
system.physmem.num_writes::switch_cpus04.data            0                       # Number of write requests responded to by this memory
system.physmem.num_writes::switch_cpus05.dtb.walker            0                       # Number of write requests responded to by this memory
system.physmem.num_writes::switch_cpus05.itb.walker            0                       # Number of write requests responded to by this memory
system.physmem.num_writes::switch_cpus05.inst            0                       # Number of write requests responded to by this memory
system.physmem.num_writes::switch_cpus05.data            0                       # Number of write requests responded to by this memory
system.physmem.num_writes::switch_cpus06.dtb.walker            0                       # Number of write requests responded to by this memory
system.physmem.num_writes::switch_cpus06.itb.walker            0                       # Number of write requests responded to by this memory
system.physmem.num_writes::switch_cpus06.inst            0                       # Number of write requests responded to by this memory
system.physmem.num_writes::switch_cpus06.data            0                       # Number of write requests responded to by this memory
system.physmem.num_writes::switch_cpus07.dtb.walker            0                       # Number of write requests responded to by this memory
system.physmem.num_writes::switch_cpus07.itb.walker            0                       # Number of write requests responded to by this memory
system.physmem.num_writes::switch_cpus07.inst            0                       # Number of write requests responded to by this memory
system.physmem.num_writes::switch_cpus07.data            0                       # Number of write requests responded to by this memory
system.physmem.num_writes::switch_cpus08.dtb.walker            0                       # Number of write requests responded to by this memory
system.physmem.num_writes::switch_cpus08.itb.walker            0                       # Number of write requests responded to by this memory
system.physmem.num_writes::switch_cpus08.inst            0                       # Number of write requests responded to by this memory
system.physmem.num_writes::switch_cpus08.data            0                       # Number of write requests responded to by this memory
system.physmem.num_writes::switch_cpus09.dtb.walker            0                       # Number of write requests responded to by this memory
system.physmem.num_writes::switch_cpus09.itb.walker            0                       # Number of write requests responded to by this memory
system.physmem.num_writes::switch_cpus09.inst            0                       # Number of write requests responded to by this memory
system.physmem.num_writes::switch_cpus09.data            0                       # Number of write requests responded to by this memory
system.physmem.num_writes::switch_cpus10.dtb.walker            0                       # Number of write requests responded to by this memory
system.physmem.num_writes::switch_cpus10.itb.walker            0                       # Number of write requests responded to by this memory
system.physmem.num_writes::switch_cpus10.inst            0                       # Number of write requests responded to by this memory
system.physmem.num_writes::switch_cpus10.data            0                       # Number of write requests responded to by this memory
system.physmem.num_writes::switch_cpus11.dtb.walker            0                       # Number of write requests responded to by this memory
system.physmem.num_writes::switch_cpus11.itb.walker            0                       # Number of write requests responded to by this memory
system.physmem.num_writes::switch_cpus11.inst            0                       # Number of write requests responded to by this memory
system.physmem.num_writes::switch_cpus11.data            0                       # Number of write requests responded to by this memory
system.physmem.num_writes::switch_cpus12.dtb.walker            0                       # Number of write requests responded to by this memory
system.physmem.num_writes::switch_cpus12.itb.walker            0                       # Number of write requests responded to by this memory
system.physmem.num_writes::switch_cpus12.inst            0                       # Number of write requests responded to by this memory
system.physmem.num_writes::switch_cpus12.data            0                       # Number of write requests responded to by this memory
system.physmem.num_writes::switch_cpus13.dtb.walker            0                       # Number of write requests responded to by this memory
system.physmem.num_writes::switch_cpus13.itb.walker            0                       # Number of write requests responded to by this memory
system.physmem.num_writes::switch_cpus13.inst            0                       # Number of write requests responded to by this memory
system.physmem.num_writes::switch_cpus13.data            0                       # Number of write requests responded to by this memory
system.physmem.num_writes::switch_cpus14.dtb.walker            0                       # Number of write requests responded to by this memory
system.physmem.num_writes::switch_cpus14.itb.walker            0                       # Number of write requests responded to by this memory
system.physmem.num_writes::switch_cpus14.inst            0                       # Number of write requests responded to by this memory
system.physmem.num_writes::switch_cpus14.data            0                       # Number of write requests responded to by this memory
system.physmem.num_writes::switch_cpus15.dtb.walker            0                       # Number of write requests responded to by this memory
system.physmem.num_writes::switch_cpus15.itb.walker            0                       # Number of write requests responded to by this memory
system.physmem.num_writes::switch_cpus15.inst            0                       # Number of write requests responded to by this memory
system.physmem.num_writes::switch_cpus15.data            0                       # Number of write requests responded to by this memory
system.physmem.num_writes::cpu00.dtb.walker            0                       # Number of write requests responded to by this memory
system.physmem.num_writes::cpu00.itb.walker            0                       # Number of write requests responded to by this memory
system.physmem.num_writes::cpu00.inst               0                       # Number of write requests responded to by this memory
system.physmem.num_writes::cpu00.data               0                       # Number of write requests responded to by this memory
system.physmem.num_writes::cpu01.dtb.walker            0                       # Number of write requests responded to by this memory
system.physmem.num_writes::cpu01.itb.walker            0                       # Number of write requests responded to by this memory
system.physmem.num_writes::cpu01.inst               0                       # Number of write requests responded to by this memory
system.physmem.num_writes::cpu01.data               0                       # Number of write requests responded to by this memory
system.physmem.num_writes::cpu02.dtb.walker            0                       # Number of write requests responded to by this memory
system.physmem.num_writes::cpu02.itb.walker            0                       # Number of write requests responded to by this memory
system.physmem.num_writes::cpu02.inst               0                       # Number of write requests responded to by this memory
system.physmem.num_writes::cpu02.data               0                       # Number of write requests responded to by this memory
system.physmem.num_writes::cpu03.dtb.walker            0                       # Number of write requests responded to by this memory
system.physmem.num_writes::cpu03.itb.walker            0                       # Number of write requests responded to by this memory
system.physmem.num_writes::cpu03.inst               0                       # Number of write requests responded to by this memory
system.physmem.num_writes::cpu03.data               0                       # Number of write requests responded to by this memory
system.physmem.num_writes::cpu04.dtb.walker            0                       # Number of write requests responded to by this memory
system.physmem.num_writes::cpu04.itb.walker            0                       # Number of write requests responded to by this memory
system.physmem.num_writes::cpu04.inst               0                       # Number of write requests responded to by this memory
system.physmem.num_writes::cpu04.data               0                       # Number of write requests responded to by this memory
system.physmem.num_writes::cpu05.dtb.walker            0                       # Number of write requests responded to by this memory
system.physmem.num_writes::cpu05.itb.walker            0                       # Number of write requests responded to by this memory
system.physmem.num_writes::cpu05.inst               0                       # Number of write requests responded to by this memory
system.physmem.num_writes::cpu05.data               0                       # Number of write requests responded to by this memory
system.physmem.num_writes::cpu06.dtb.walker            0                       # Number of write requests responded to by this memory
system.physmem.num_writes::cpu06.itb.walker            0                       # Number of write requests responded to by this memory
system.physmem.num_writes::cpu06.inst               0                       # Number of write requests responded to by this memory
system.physmem.num_writes::cpu06.data               0                       # Number of write requests responded to by this memory
system.physmem.num_writes::cpu07.dtb.walker            0                       # Number of write requests responded to by this memory
system.physmem.num_writes::cpu07.itb.walker            0                       # Number of write requests responded to by this memory
system.physmem.num_writes::cpu07.inst               0                       # Number of write requests responded to by this memory
system.physmem.num_writes::cpu07.data               0                       # Number of write requests responded to by this memory
system.physmem.num_writes::cpu08.dtb.walker            0                       # Number of write requests responded to by this memory
system.physmem.num_writes::cpu08.itb.walker            0                       # Number of write requests responded to by this memory
system.physmem.num_writes::cpu08.inst               0                       # Number of write requests responded to by this memory
system.physmem.num_writes::cpu08.data               0                       # Number of write requests responded to by this memory
system.physmem.num_writes::cpu09.dtb.walker            0                       # Number of write requests responded to by this memory
system.physmem.num_writes::cpu09.itb.walker            0                       # Number of write requests responded to by this memory
system.physmem.num_writes::cpu09.inst               0                       # Number of write requests responded to by this memory
system.physmem.num_writes::cpu09.data               0                       # Number of write requests responded to by this memory
system.physmem.num_writes::cpu10.dtb.walker            0                       # Number of write requests responded to by this memory
system.physmem.num_writes::cpu10.itb.walker            0                       # Number of write requests responded to by this memory
system.physmem.num_writes::cpu10.inst               0                       # Number of write requests responded to by this memory
system.physmem.num_writes::cpu10.data               0                       # Number of write requests responded to by this memory
system.physmem.num_writes::cpu11.dtb.walker            0                       # Number of write requests responded to by this memory
system.physmem.num_writes::cpu11.itb.walker            0                       # Number of write requests responded to by this memory
system.physmem.num_writes::cpu11.inst               0                       # Number of write requests responded to by this memory
system.physmem.num_writes::cpu11.data               0                       # Number of write requests responded to by this memory
system.physmem.num_writes::cpu12.dtb.walker            0                       # Number of write requests responded to by this memory
system.physmem.num_writes::cpu12.itb.walker            0                       # Number of write requests responded to by this memory
system.physmem.num_writes::cpu12.inst               0                       # Number of write requests responded to by this memory
system.physmem.num_writes::cpu12.data               0                       # Number of write requests responded to by this memory
system.physmem.num_writes::cpu13.dtb.walker            0                       # Number of write requests responded to by this memory
system.physmem.num_writes::cpu13.itb.walker            0                       # Number of write requests responded to by this memory
system.physmem.num_writes::cpu13.inst               0                       # Number of write requests responded to by this memory
system.physmem.num_writes::cpu13.data               0                       # Number of write requests responded to by this memory
system.physmem.num_writes::cpu14.dtb.walker            0                       # Number of write requests responded to by this memory
system.physmem.num_writes::cpu14.itb.walker            0                       # Number of write requests responded to by this memory
system.physmem.num_writes::cpu14.inst               0                       # Number of write requests responded to by this memory
system.physmem.num_writes::cpu14.data               0                       # Number of write requests responded to by this memory
system.physmem.num_writes::cpu15.dtb.walker            0                       # Number of write requests responded to by this memory
system.physmem.num_writes::cpu15.itb.walker            0                       # Number of write requests responded to by this memory
system.physmem.num_writes::cpu15.inst               0                       # Number of write requests responded to by this memory
system.physmem.num_writes::cpu15.data               0                       # Number of write requests responded to by this memory
system.physmem.num_writes::total               101839                       # Number of write requests responded to by this memory
system.physmem.bw_read::switch_cpus00.inst        39203                       # Total read bandwidth from this memory (bytes/s)
system.physmem.bw_read::switch_cpus00.data     21263259                       # Total read bandwidth from this memory (bytes/s)
system.physmem.bw_read::switch_cpus01.inst        45737                       # Total read bandwidth from this memory (bytes/s)
system.physmem.bw_read::switch_cpus01.data     39622231                       # Total read bandwidth from this memory (bytes/s)
system.physmem.bw_read::switch_cpus02.inst        37025                       # Total read bandwidth from this memory (bytes/s)
system.physmem.bw_read::switch_cpus02.data     20793912                       # Total read bandwidth from this memory (bytes/s)
system.physmem.bw_read::switch_cpus03.inst        45737                       # Total read bandwidth from this memory (bytes/s)
system.physmem.bw_read::switch_cpus03.data     13787469                       # Total read bandwidth from this memory (bytes/s)
system.physmem.bw_read::switch_cpus04.inst        46826                       # Total read bandwidth from this memory (bytes/s)
system.physmem.bw_read::switch_cpus04.data     13811427                       # Total read bandwidth from this memory (bytes/s)
system.physmem.bw_read::switch_cpus05.inst        45737                       # Total read bandwidth from this memory (bytes/s)
system.physmem.bw_read::switch_cpus05.data     39743107                       # Total read bandwidth from this memory (bytes/s)
system.physmem.bw_read::switch_cpus06.inst        37025                       # Total read bandwidth from this memory (bytes/s)
system.physmem.bw_read::switch_cpus06.data     20769955                       # Total read bandwidth from this memory (bytes/s)
system.physmem.bw_read::switch_cpus07.inst        46826                       # Total read bandwidth from this memory (bytes/s)
system.physmem.bw_read::switch_cpus07.data     39697370                       # Total read bandwidth from this memory (bytes/s)
system.physmem.bw_read::switch_cpus08.inst        45737                       # Total read bandwidth from this memory (bytes/s)
system.physmem.bw_read::switch_cpus08.data     13789647                       # Total read bandwidth from this memory (bytes/s)
system.physmem.bw_read::switch_cpus09.inst        39203                       # Total read bandwidth from this memory (bytes/s)
system.physmem.bw_read::switch_cpus09.data     21234946                       # Total read bandwidth from this memory (bytes/s)
system.physmem.bw_read::switch_cpus10.inst        45737                       # Total read bandwidth from this memory (bytes/s)
system.physmem.bw_read::switch_cpus10.data     13802715                       # Total read bandwidth from this memory (bytes/s)
system.physmem.bw_read::switch_cpus11.inst        37025                       # Total read bandwidth from this memory (bytes/s)
system.physmem.bw_read::switch_cpus11.data      9846481                       # Total read bandwidth from this memory (bytes/s)
system.physmem.bw_read::switch_cpus12.inst        39203                       # Total read bandwidth from this memory (bytes/s)
system.physmem.bw_read::switch_cpus12.data     21386313                       # Total read bandwidth from this memory (bytes/s)
system.physmem.bw_read::switch_cpus13.inst        44648                       # Total read bandwidth from this memory (bytes/s)
system.physmem.bw_read::switch_cpus13.data     33558837                       # Total read bandwidth from this memory (bytes/s)
system.physmem.bw_read::switch_cpus14.inst        39203                       # Total read bandwidth from this memory (bytes/s)
system.physmem.bw_read::switch_cpus14.data     21291572                       # Total read bandwidth from this memory (bytes/s)
system.physmem.bw_read::switch_cpus15.inst        45737                       # Total read bandwidth from this memory (bytes/s)
system.physmem.bw_read::switch_cpus15.data     13802715                       # Total read bandwidth from this memory (bytes/s)
system.physmem.bw_read::total               358882564                       # Total read bandwidth from this memory (bytes/s)
system.physmem.bw_inst_read::switch_cpus00.inst        39203                       # Instruction read bandwidth from this memory (bytes/s)
system.physmem.bw_inst_read::switch_cpus01.inst        45737                       # Instruction read bandwidth from this memory (bytes/s)
system.physmem.bw_inst_read::switch_cpus02.inst        37025                       # Instruction read bandwidth from this memory (bytes/s)
system.physmem.bw_inst_read::switch_cpus03.inst        45737                       # Instruction read bandwidth from this memory (bytes/s)
system.physmem.bw_inst_read::switch_cpus04.inst        46826                       # Instruction read bandwidth from this memory (bytes/s)
system.physmem.bw_inst_read::switch_cpus05.inst        45737                       # Instruction read bandwidth from this memory (bytes/s)
system.physmem.bw_inst_read::switch_cpus06.inst        37025                       # Instruction read bandwidth from this memory (bytes/s)
system.physmem.bw_inst_read::switch_cpus07.inst        46826                       # Instruction read bandwidth from this memory (bytes/s)
system.physmem.bw_inst_read::switch_cpus08.inst        45737                       # Instruction read bandwidth from this memory (bytes/s)
system.physmem.bw_inst_read::switch_cpus09.inst        39203                       # Instruction read bandwidth from this memory (bytes/s)
system.physmem.bw_inst_read::switch_cpus10.inst        45737                       # Instruction read bandwidth from this memory (bytes/s)
system.physmem.bw_inst_read::switch_cpus11.inst        37025                       # Instruction read bandwidth from this memory (bytes/s)
system.physmem.bw_inst_read::switch_cpus12.inst        39203                       # Instruction read bandwidth from this memory (bytes/s)
system.physmem.bw_inst_read::switch_cpus13.inst        44648                       # Instruction read bandwidth from this memory (bytes/s)
system.physmem.bw_inst_read::switch_cpus14.inst        39203                       # Instruction read bandwidth from this memory (bytes/s)
system.physmem.bw_inst_read::switch_cpus15.inst        45737                       # Instruction read bandwidth from this memory (bytes/s)
system.physmem.bw_inst_read::total             680607                       # Instruction read bandwidth from this memory (bytes/s)
system.physmem.bw_write::writebacks         110899777                       # Write bandwidth from this memory (bytes/s)
system.physmem.bw_write::total              110899777                       # Write bandwidth from this memory (bytes/s)
system.physmem.bw_total::writebacks         110899777                       # Total bandwidth to/from this memory (bytes/s)
system.physmem.bw_total::switch_cpus00.inst        39203                       # Total bandwidth to/from this memory (bytes/s)
system.physmem.bw_total::switch_cpus00.data     21263259                       # Total bandwidth to/from this memory (bytes/s)
system.physmem.bw_total::switch_cpus01.inst        45737                       # Total bandwidth to/from this memory (bytes/s)
system.physmem.bw_total::switch_cpus01.data     39622231                       # Total bandwidth to/from this memory (bytes/s)
system.physmem.bw_total::switch_cpus02.inst        37025                       # Total bandwidth to/from this memory (bytes/s)
system.physmem.bw_total::switch_cpus02.data     20793912                       # Total bandwidth to/from this memory (bytes/s)
system.physmem.bw_total::switch_cpus03.inst        45737                       # Total bandwidth to/from this memory (bytes/s)
system.physmem.bw_total::switch_cpus03.data     13787469                       # Total bandwidth to/from this memory (bytes/s)
system.physmem.bw_total::switch_cpus04.inst        46826                       # Total bandwidth to/from this memory (bytes/s)
system.physmem.bw_total::switch_cpus04.data     13811427                       # Total bandwidth to/from this memory (bytes/s)
system.physmem.bw_total::switch_cpus05.inst        45737                       # Total bandwidth to/from this memory (bytes/s)
system.physmem.bw_total::switch_cpus05.data     39743107                       # Total bandwidth to/from this memory (bytes/s)
system.physmem.bw_total::switch_cpus06.inst        37025                       # Total bandwidth to/from this memory (bytes/s)
system.physmem.bw_total::switch_cpus06.data     20769955                       # Total bandwidth to/from this memory (bytes/s)
system.physmem.bw_total::switch_cpus07.inst        46826                       # Total bandwidth to/from this memory (bytes/s)
system.physmem.bw_total::switch_cpus07.data     39697370                       # Total bandwidth to/from this memory (bytes/s)
system.physmem.bw_total::switch_cpus08.inst        45737                       # Total bandwidth to/from this memory (bytes/s)
system.physmem.bw_total::switch_cpus08.data     13789647                       # Total bandwidth to/from this memory (bytes/s)
system.physmem.bw_total::switch_cpus09.inst        39203                       # Total bandwidth to/from this memory (bytes/s)
system.physmem.bw_total::switch_cpus09.data     21234946                       # Total bandwidth to/from this memory (bytes/s)
system.physmem.bw_total::switch_cpus10.inst        45737                       # Total bandwidth to/from this memory (bytes/s)
system.physmem.bw_total::switch_cpus10.data     13802715                       # Total bandwidth to/from this memory (bytes/s)
system.physmem.bw_total::switch_cpus11.inst        37025                       # Total bandwidth to/from this memory (bytes/s)
system.physmem.bw_total::switch_cpus11.data      9846481                       # Total bandwidth to/from this memory (bytes/s)
system.physmem.bw_total::switch_cpus12.inst        39203                       # Total bandwidth to/from this memory (bytes/s)
system.physmem.bw_total::switch_cpus12.data     21386313                       # Total bandwidth to/from this memory (bytes/s)
system.physmem.bw_total::switch_cpus13.inst        44648                       # Total bandwidth to/from this memory (bytes/s)
system.physmem.bw_total::switch_cpus13.data     33558837                       # Total bandwidth to/from this memory (bytes/s)
system.physmem.bw_total::switch_cpus14.inst        39203                       # Total bandwidth to/from this memory (bytes/s)
system.physmem.bw_total::switch_cpus14.data     21291572                       # Total bandwidth to/from this memory (bytes/s)
system.physmem.bw_total::switch_cpus15.inst        45737                       # Total bandwidth to/from this memory (bytes/s)
system.physmem.bw_total::switch_cpus15.data     13802715                       # Total bandwidth to/from this memory (bytes/s)
system.physmem.bw_total::total              469782341                       # Total bandwidth to/from this memory (bytes/s)
system.switch_cpus00.dtb.inst_hits                  0                       # ITB inst hits
system.switch_cpus00.dtb.inst_misses                0                       # ITB inst misses
system.switch_cpus00.dtb.read_hits                  0                       # DTB read hits
system.switch_cpus00.dtb.read_misses                0                       # DTB read misses
system.switch_cpus00.dtb.write_hits                 0                       # DTB write hits
system.switch_cpus00.dtb.write_misses               0                       # DTB write misses
system.switch_cpus00.dtb.flush_tlb                  0                       # Number of times complete TLB was flushed
system.switch_cpus00.dtb.flush_tlb_mva              0                       # Number of times TLB was flushed by MVA
system.switch_cpus00.dtb.flush_tlb_mva_asid            0                       # Number of times TLB was flushed by MVA & ASID
system.switch_cpus00.dtb.flush_tlb_asid             0                       # Number of times TLB was flushed by ASID
system.switch_cpus00.dtb.flush_entries              0                       # Number of entries that have been flushed from TLB
system.switch_cpus00.dtb.align_faults               0                       # Number of TLB faults due to alignment restrictions
system.switch_cpus00.dtb.prefetch_faults            0                       # Number of TLB faults due to prefetch
system.switch_cpus00.dtb.domain_faults              0                       # Number of TLB faults due to domain restrictions
system.switch_cpus00.dtb.perms_faults               0                       # Number of TLB faults due to permissions restrictions
system.switch_cpus00.dtb.read_accesses              0                       # DTB read accesses
system.switch_cpus00.dtb.write_accesses             0                       # DTB write accesses
system.switch_cpus00.dtb.inst_accesses              0                       # ITB inst accesses
system.switch_cpus00.dtb.hits                       0                       # DTB hits
system.switch_cpus00.dtb.misses                     0                       # DTB misses
system.switch_cpus00.dtb.accesses                   0                       # DTB accesses
system.switch_cpus00.itb.inst_hits                  0                       # ITB inst hits
system.switch_cpus00.itb.inst_misses                0                       # ITB inst misses
system.switch_cpus00.itb.read_hits                  0                       # DTB read hits
system.switch_cpus00.itb.read_misses                0                       # DTB read misses
system.switch_cpus00.itb.write_hits                 0                       # DTB write hits
system.switch_cpus00.itb.write_misses               0                       # DTB write misses
system.switch_cpus00.itb.flush_tlb                  0                       # Number of times complete TLB was flushed
system.switch_cpus00.itb.flush_tlb_mva              0                       # Number of times TLB was flushed by MVA
system.switch_cpus00.itb.flush_tlb_mva_asid            0                       # Number of times TLB was flushed by MVA & ASID
system.switch_cpus00.itb.flush_tlb_asid             0                       # Number of times TLB was flushed by ASID
system.switch_cpus00.itb.flush_entries              0                       # Number of entries that have been flushed from TLB
system.switch_cpus00.itb.align_faults               0                       # Number of TLB faults due to alignment restrictions
system.switch_cpus00.itb.prefetch_faults            0                       # Number of TLB faults due to prefetch
system.switch_cpus00.itb.domain_faults              0                       # Number of TLB faults due to domain restrictions
system.switch_cpus00.itb.perms_faults               0                       # Number of TLB faults due to permissions restrictions
system.switch_cpus00.itb.read_accesses              0                       # DTB read accesses
system.switch_cpus00.itb.write_accesses             0                       # DTB write accesses
system.switch_cpus00.itb.inst_accesses              0                       # ITB inst accesses
system.switch_cpus00.itb.hits                       0                       # DTB hits
system.switch_cpus00.itb.misses                     0                       # DTB misses
system.switch_cpus00.itb.accesses                   0                       # DTB accesses
system.cpu00.workload.num_syscalls                 52                       # Number of system calls
system.switch_cpus00.numCycles              281875526                       # number of cpu cycles simulated
system.switch_cpus00.numWorkItemsStarted            0                       # number of work items this cpu started
system.switch_cpus00.numWorkItemsCompleted            0                       # number of work items this cpu completed
system.switch_cpus00.BPredUnit.lookups       20718632                       # Number of BP lookups
system.switch_cpus00.BPredUnit.condPredicted     16992138                       # Number of conditional branches predicted
system.switch_cpus00.BPredUnit.condIncorrect      2025979                       # Number of conditional branches incorrect
system.switch_cpus00.BPredUnit.BTBLookups      8530122                       # Number of BTB lookups
system.switch_cpus00.BPredUnit.BTBHits        8088736                       # Number of BTB hits
system.switch_cpus00.BPredUnit.BTBCorrect            0                       # Number of correct BTB predictions (this stat may not work properly.
system.switch_cpus00.BPredUnit.usedRAS        2122036                       # Number of times the RAS was used to get a target.
system.switch_cpus00.BPredUnit.RASInCorrect        90813                       # Number of incorrect RAS predictions.
system.switch_cpus00.fetch.icacheStallCycles    197559566                       # Number of cycles fetch is stalled on an Icache miss
system.switch_cpus00.fetch.Insts            117783138                       # Number of instructions fetch has processed
system.switch_cpus00.fetch.Branches          20718632                       # Number of branches that fetch encountered
system.switch_cpus00.fetch.predictedBranches     10210772                       # Number of branches that fetch has predicted taken
system.switch_cpus00.fetch.Cycles            25903572                       # Number of cycles fetch has run and was not squashing or blocked
system.switch_cpus00.fetch.SquashCycles       5774801                       # Number of cycles fetch has spent squashing
system.switch_cpus00.fetch.BlockedCycles     18514310                       # Number of cycles fetch has spent blocked
system.switch_cpus00.fetch.CacheLines        12175667                       # Number of cache lines fetched
system.switch_cpus00.fetch.IcacheSquashes      2014946                       # Number of outstanding Icache misses that were squashed
system.switch_cpus00.fetch.rateDist::samples    245690521                       # Number of instructions fetched each cycle (Total)
system.switch_cpus00.fetch.rateDist::mean     0.586232                       # Number of instructions fetched each cycle (Total)
system.switch_cpus00.fetch.rateDist::stdev     1.923770                       # Number of instructions fetched each cycle (Total)
system.switch_cpus00.fetch.rateDist::underflows            0      0.00%      0.00% # Number of instructions fetched each cycle (Total)
system.switch_cpus00.fetch.rateDist::0      219786949     89.46%     89.46% # Number of instructions fetched each cycle (Total)
system.switch_cpus00.fetch.rateDist::1        2804762      1.14%     90.60% # Number of instructions fetched each cycle (Total)
system.switch_cpus00.fetch.rateDist::2        3243195      1.32%     91.92% # Number of instructions fetched each cycle (Total)
system.switch_cpus00.fetch.rateDist::3        1781738      0.73%     92.64% # Number of instructions fetched each cycle (Total)
system.switch_cpus00.fetch.rateDist::4        2067432      0.84%     93.49% # Number of instructions fetched each cycle (Total)
system.switch_cpus00.fetch.rateDist::5        1126635      0.46%     93.94% # Number of instructions fetched each cycle (Total)
system.switch_cpus00.fetch.rateDist::6         768243      0.31%     94.26% # Number of instructions fetched each cycle (Total)
system.switch_cpus00.fetch.rateDist::7        2009710      0.82%     95.07% # Number of instructions fetched each cycle (Total)
system.switch_cpus00.fetch.rateDist::8       12101857      4.93%    100.00% # Number of instructions fetched each cycle (Total)
system.switch_cpus00.fetch.rateDist::overflows            0      0.00%    100.00% # Number of instructions fetched each cycle (Total)
system.switch_cpus00.fetch.rateDist::min_value            0                       # Number of instructions fetched each cycle (Total)
system.switch_cpus00.fetch.rateDist::max_value            8                       # Number of instructions fetched each cycle (Total)
system.switch_cpus00.fetch.rateDist::total    245690521                       # Number of instructions fetched each cycle (Total)
system.switch_cpus00.fetch.branchRate        0.073503                       # Number of branch fetches per cycle
system.switch_cpus00.fetch.rate              0.417855                       # Number of inst fetches per cycle
system.switch_cpus00.decode.IdleCycles      195962526                       # Number of cycles decode is idle
system.switch_cpus00.decode.BlockedCycles     20142235                       # Number of cycles decode is blocked
system.switch_cpus00.decode.RunCycles        25697114                       # Number of cycles decode is running
system.switch_cpus00.decode.UnblockCycles       194454                       # Number of cycles decode is unblocking
system.switch_cpus00.decode.SquashCycles      3694186                       # Number of cycles decode is squashing
system.switch_cpus00.decode.BranchResolved      3362049                       # Number of times decode resolved a branch
system.switch_cpus00.decode.BranchMispred        18887                       # Number of times decode detected a branch misprediction
system.switch_cpus00.decode.DecodedInsts    143799264                       # Number of instructions handled by decode
system.switch_cpus00.decode.SquashedInsts        93554                       # Number of squashed instructions handled by decode
system.switch_cpus00.rename.SquashCycles      3694186                       # Number of cycles rename is squashing
system.switch_cpus00.rename.IdleCycles      196266774                       # Number of cycles rename is idle
system.switch_cpus00.rename.BlockCycles       6434452                       # Number of cycles rename is blocking
system.switch_cpus00.rename.serializeStallCycles     12845573                       # count of cycles rename stalled for serializing inst
system.switch_cpus00.rename.RunCycles        25595468                       # Number of cycles rename is running
system.switch_cpus00.rename.UnblockCycles       854062                       # Number of cycles rename is unblocking
system.switch_cpus00.rename.RenamedInsts    143712176                       # Number of instructions processed by rename
system.switch_cpus00.rename.ROBFullEvents          219                       # Number of times rename has blocked due to ROB full
system.switch_cpus00.rename.IQFullEvents       223886                       # Number of times rename has blocked due to IQ full
system.switch_cpus00.rename.LSQFullEvents       394282                       # Number of times rename has blocked due to LSQ full
system.switch_cpus00.rename.FullRegisterEvents           75                       # Number of times there has been no free registers
system.switch_cpus00.rename.RenamedOperands    199672396                       # Number of destination operands rename has renamed
system.switch_cpus00.rename.RenameLookups    669130395                       # Number of register rename lookups that rename has made
system.switch_cpus00.rename.int_rename_lookups    669130395                       # Number of integer rename lookups
system.switch_cpus00.rename.CommittedMaps    170291692                       # Number of HB maps that are committed
system.switch_cpus00.rename.UndoneMaps       29380664                       # Number of HB maps that are undone due to squashing
system.switch_cpus00.rename.serializingInsts        37452                       # count of serializing insts renamed
system.switch_cpus00.rename.tempSerializingInsts        20840                       # count of temporary serializing insts renamed
system.switch_cpus00.rename.skidInsts         2294303                       # count of insts added to the skid buffer
system.switch_cpus00.memDep0.insertedLoads     13732186                       # Number of loads inserted to the mem dependence unit.
system.switch_cpus00.memDep0.insertedStores      7469117                       # Number of stores inserted to the mem dependence unit.
system.switch_cpus00.memDep0.conflictingLoads       197009                       # Number of conflicting loads.
system.switch_cpus00.memDep0.conflictingStores      1662955                       # Number of conflicting stores.
system.switch_cpus00.iq.iqInstsAdded        143466302                       # Number of instructions added to the IQ (excludes non-spec)
system.switch_cpus00.iq.iqNonSpecInstsAdded        37535                       # Number of non-speculative instructions added to the IQ
system.switch_cpus00.iq.iqInstsIssued       135486680                       # Number of instructions issued
system.switch_cpus00.iq.iqSquashedInstsIssued       191573                       # Number of squashed instructions issued
system.switch_cpus00.iq.iqSquashedInstsExamined     18108597                       # Number of squashed instructions iterated over during squash; mainly for profiling
system.switch_cpus00.iq.iqSquashedOperandsExamined     41953428                       # Number of squashed operands that are examined and possibly removed from graph
system.switch_cpus00.iq.iqSquashedNonSpecRemoved         4085                       # Number of squashed non-spec instructions that were removed
system.switch_cpus00.iq.issued_per_cycle::samples    245690521                       # Number of insts issued each cycle
system.switch_cpus00.iq.issued_per_cycle::mean     0.551453                       # Number of insts issued each cycle
system.switch_cpus00.iq.issued_per_cycle::stdev     1.244164                       # Number of insts issued each cycle
system.switch_cpus00.iq.issued_per_cycle::underflows            0      0.00%      0.00% # Number of insts issued each cycle
system.switch_cpus00.iq.issued_per_cycle::0    188619190     76.77%     76.77% # Number of insts issued each cycle
system.switch_cpus00.iq.issued_per_cycle::1     22939671      9.34%     86.11% # Number of insts issued each cycle
system.switch_cpus00.iq.issued_per_cycle::2     12328501      5.02%     91.13% # Number of insts issued each cycle
system.switch_cpus00.iq.issued_per_cycle::3      8547843      3.48%     94.60% # Number of insts issued each cycle
system.switch_cpus00.iq.issued_per_cycle::4      7469656      3.04%     97.65% # Number of insts issued each cycle
system.switch_cpus00.iq.issued_per_cycle::5      3829631      1.56%     99.20% # Number of insts issued each cycle
system.switch_cpus00.iq.issued_per_cycle::6       916223      0.37%     99.58% # Number of insts issued each cycle
system.switch_cpus00.iq.issued_per_cycle::7       596087      0.24%     99.82% # Number of insts issued each cycle
system.switch_cpus00.iq.issued_per_cycle::8       443719      0.18%    100.00% # Number of insts issued each cycle
system.switch_cpus00.iq.issued_per_cycle::overflows            0      0.00%    100.00% # Number of insts issued each cycle
system.switch_cpus00.iq.issued_per_cycle::min_value            0                       # Number of insts issued each cycle
system.switch_cpus00.iq.issued_per_cycle::max_value            8                       # Number of insts issued each cycle
system.switch_cpus00.iq.issued_per_cycle::total    245690521                       # Number of insts issued each cycle
system.switch_cpus00.iq.fu_full::No_OpClass            0      0.00%      0.00% # attempts to use FU when none available
system.switch_cpus00.iq.fu_full::IntAlu         35394     12.00%     12.00% # attempts to use FU when none available
system.switch_cpus00.iq.fu_full::IntMult            0      0.00%     12.00% # attempts to use FU when none available
system.switch_cpus00.iq.fu_full::IntDiv             0      0.00%     12.00% # attempts to use FU when none available
system.switch_cpus00.iq.fu_full::FloatAdd            0      0.00%     12.00% # attempts to use FU when none available
system.switch_cpus00.iq.fu_full::FloatCmp            0      0.00%     12.00% # attempts to use FU when none available
system.switch_cpus00.iq.fu_full::FloatCvt            0      0.00%     12.00% # attempts to use FU when none available
system.switch_cpus00.iq.fu_full::FloatMult            0      0.00%     12.00% # attempts to use FU when none available
system.switch_cpus00.iq.fu_full::FloatDiv            0      0.00%     12.00% # attempts to use FU when none available
system.switch_cpus00.iq.fu_full::FloatSqrt            0      0.00%     12.00% # attempts to use FU when none available
system.switch_cpus00.iq.fu_full::SimdAdd            0      0.00%     12.00% # attempts to use FU when none available
system.switch_cpus00.iq.fu_full::SimdAddAcc            0      0.00%     12.00% # attempts to use FU when none available
system.switch_cpus00.iq.fu_full::SimdAlu            0      0.00%     12.00% # attempts to use FU when none available
system.switch_cpus00.iq.fu_full::SimdCmp            0      0.00%     12.00% # attempts to use FU when none available
system.switch_cpus00.iq.fu_full::SimdCvt            0      0.00%     12.00% # attempts to use FU when none available
system.switch_cpus00.iq.fu_full::SimdMisc            0      0.00%     12.00% # attempts to use FU when none available
system.switch_cpus00.iq.fu_full::SimdMult            0      0.00%     12.00% # attempts to use FU when none available
system.switch_cpus00.iq.fu_full::SimdMultAcc            0      0.00%     12.00% # attempts to use FU when none available
system.switch_cpus00.iq.fu_full::SimdShift            0      0.00%     12.00% # attempts to use FU when none available
system.switch_cpus00.iq.fu_full::SimdShiftAcc            0      0.00%     12.00% # attempts to use FU when none available
system.switch_cpus00.iq.fu_full::SimdSqrt            0      0.00%     12.00% # attempts to use FU when none available
system.switch_cpus00.iq.fu_full::SimdFloatAdd            0      0.00%     12.00% # attempts to use FU when none available
system.switch_cpus00.iq.fu_full::SimdFloatAlu            0      0.00%     12.00% # attempts to use FU when none available
system.switch_cpus00.iq.fu_full::SimdFloatCmp            0      0.00%     12.00% # attempts to use FU when none available
system.switch_cpus00.iq.fu_full::SimdFloatCvt            0      0.00%     12.00% # attempts to use FU when none available
system.switch_cpus00.iq.fu_full::SimdFloatDiv            0      0.00%     12.00% # attempts to use FU when none available
system.switch_cpus00.iq.fu_full::SimdFloatMisc            0      0.00%     12.00% # attempts to use FU when none available
system.switch_cpus00.iq.fu_full::SimdFloatMult            0      0.00%     12.00% # attempts to use FU when none available
system.switch_cpus00.iq.fu_full::SimdFloatMultAcc            0      0.00%     12.00% # attempts to use FU when none available
system.switch_cpus00.iq.fu_full::SimdFloatSqrt            0      0.00%     12.00% # attempts to use FU when none available
system.switch_cpus00.iq.fu_full::MemRead       128345     43.51%     55.50% # attempts to use FU when none available
system.switch_cpus00.iq.fu_full::MemWrite       131260     44.50%    100.00% # attempts to use FU when none available
system.switch_cpus00.iq.fu_full::IprAccess            0      0.00%    100.00% # attempts to use FU when none available
system.switch_cpus00.iq.fu_full::InstPrefetch            0      0.00%    100.00% # attempts to use FU when none available
system.switch_cpus00.iq.FU_type_0::No_OpClass            0      0.00%      0.00% # Type of FU issued
system.switch_cpus00.iq.FU_type_0::IntAlu    113405706     83.70%     83.70% # Type of FU issued
system.switch_cpus00.iq.FU_type_0::IntMult      2120295      1.56%     85.27% # Type of FU issued
system.switch_cpus00.iq.FU_type_0::IntDiv            0      0.00%     85.27% # Type of FU issued
system.switch_cpus00.iq.FU_type_0::FloatAdd            0      0.00%     85.27% # Type of FU issued
system.switch_cpus00.iq.FU_type_0::FloatCmp            0      0.00%     85.27% # Type of FU issued
system.switch_cpus00.iq.FU_type_0::FloatCvt            0      0.00%     85.27% # Type of FU issued
system.switch_cpus00.iq.FU_type_0::FloatMult            0      0.00%     85.27% # Type of FU issued
system.switch_cpus00.iq.FU_type_0::FloatDiv            0      0.00%     85.27% # Type of FU issued
system.switch_cpus00.iq.FU_type_0::FloatSqrt            0      0.00%     85.27% # Type of FU issued
system.switch_cpus00.iq.FU_type_0::SimdAdd            0      0.00%     85.27% # Type of FU issued
system.switch_cpus00.iq.FU_type_0::SimdAddAcc            0      0.00%     85.27% # Type of FU issued
system.switch_cpus00.iq.FU_type_0::SimdAlu            0      0.00%     85.27% # Type of FU issued
system.switch_cpus00.iq.FU_type_0::SimdCmp            0      0.00%     85.27% # Type of FU issued
system.switch_cpus00.iq.FU_type_0::SimdCvt            0      0.00%     85.27% # Type of FU issued
system.switch_cpus00.iq.FU_type_0::SimdMisc            0      0.00%     85.27% # Type of FU issued
system.switch_cpus00.iq.FU_type_0::SimdMult            0      0.00%     85.27% # Type of FU issued
system.switch_cpus00.iq.FU_type_0::SimdMultAcc            0      0.00%     85.27% # Type of FU issued
system.switch_cpus00.iq.FU_type_0::SimdShift            0      0.00%     85.27% # Type of FU issued
system.switch_cpus00.iq.FU_type_0::SimdShiftAcc            0      0.00%     85.27% # Type of FU issued
system.switch_cpus00.iq.FU_type_0::SimdSqrt            0      0.00%     85.27% # Type of FU issued
system.switch_cpus00.iq.FU_type_0::SimdFloatAdd            0      0.00%     85.27% # Type of FU issued
system.switch_cpus00.iq.FU_type_0::SimdFloatAlu            0      0.00%     85.27% # Type of FU issued
system.switch_cpus00.iq.FU_type_0::SimdFloatCmp            0      0.00%     85.27% # Type of FU issued
system.switch_cpus00.iq.FU_type_0::SimdFloatCvt            0      0.00%     85.27% # Type of FU issued
system.switch_cpus00.iq.FU_type_0::SimdFloatDiv            0      0.00%     85.27% # Type of FU issued
system.switch_cpus00.iq.FU_type_0::SimdFloatMisc        16584      0.01%     85.28% # Type of FU issued
system.switch_cpus00.iq.FU_type_0::SimdFloatMult            0      0.00%     85.28% # Type of FU issued
system.switch_cpus00.iq.FU_type_0::SimdFloatMultAcc            0      0.00%     85.28% # Type of FU issued
system.switch_cpus00.iq.FU_type_0::SimdFloatSqrt            0      0.00%     85.28% # Type of FU issued
system.switch_cpus00.iq.FU_type_0::MemRead     12527579      9.25%     94.53% # Type of FU issued
system.switch_cpus00.iq.FU_type_0::MemWrite      7416516      5.47%    100.00% # Type of FU issued
system.switch_cpus00.iq.FU_type_0::IprAccess            0      0.00%    100.00% # Type of FU issued
system.switch_cpus00.iq.FU_type_0::InstPrefetch            0      0.00%    100.00% # Type of FU issued
system.switch_cpus00.iq.FU_type_0::total    135486680                       # Type of FU issued
system.switch_cpus00.iq.rate                 0.480661                       # Inst issue rate
system.switch_cpus00.iq.fu_busy_cnt            294999                       # FU busy when requested
system.switch_cpus00.iq.fu_busy_rate         0.002177                       # FU busy rate (busy events/executed inst)
system.switch_cpus00.iq.int_inst_queue_reads    517150449                       # Number of integer instruction queue reads
system.switch_cpus00.iq.int_inst_queue_writes    161613720                       # Number of integer instruction queue writes
system.switch_cpus00.iq.int_inst_queue_wakeup_accesses    133234476                       # Number of integer instruction queue wakeup accesses
system.switch_cpus00.iq.fp_inst_queue_reads            0                       # Number of floating instruction queue reads
system.switch_cpus00.iq.fp_inst_queue_writes            0                       # Number of floating instruction queue writes
system.switch_cpus00.iq.fp_inst_queue_wakeup_accesses            0                       # Number of floating instruction queue wakeup accesses
system.switch_cpus00.iq.int_alu_accesses    135781679                       # Number of integer alu accesses
system.switch_cpus00.iq.fp_alu_accesses             0                       # Number of floating point alu accesses
system.switch_cpus00.iew.lsq.thread0.forwLoads       340984                       # Number of loads that had data forwarded from stores
system.switch_cpus00.iew.lsq.thread0.invAddrLoads            0                       # Number of loads ignored due to an invalid address
system.switch_cpus00.iew.lsq.thread0.squashedLoads      2448503                       # Number of loads squashed
system.switch_cpus00.iew.lsq.thread0.ignoredResponses          839                       # Number of memory responses ignored because the instruction is squashed
system.switch_cpus00.iew.lsq.thread0.memOrderViolation         1290                       # Number of memory ordering violations
system.switch_cpus00.iew.lsq.thread0.squashedStores       168445                       # Number of stores squashed
system.switch_cpus00.iew.lsq.thread0.invAddrSwpfs            0                       # Number of software prefetches ignored due to an invalid address
system.switch_cpus00.iew.lsq.thread0.blockedLoads            0                       # Number of blocked loads due to partial load-store forwarding
system.switch_cpus00.iew.lsq.thread0.rescheduledLoads         8294                       # Number of loads that were rescheduled
system.switch_cpus00.iew.lsq.thread0.cacheBlocked         4309                       # Number of times an access to memory failed due to the cache being blocked
system.switch_cpus00.iew.iewIdleCycles              0                       # Number of cycles IEW is idle
system.switch_cpus00.iew.iewSquashCycles      3694186                       # Number of cycles IEW is squashing
system.switch_cpus00.iew.iewBlockCycles       5951661                       # Number of cycles IEW is blocking
system.switch_cpus00.iew.iewUnblockCycles       149070                       # Number of cycles IEW is unblocking
system.switch_cpus00.iew.iewDispatchedInsts    143503955                       # Number of instructions dispatched to IQ
system.switch_cpus00.iew.iewDispSquashedInsts        74641                       # Number of squashed instructions skipped by dispatch
system.switch_cpus00.iew.iewDispLoadInsts     13732186                       # Number of dispatched load instructions
system.switch_cpus00.iew.iewDispStoreInsts      7469117                       # Number of dispatched store instructions
system.switch_cpus00.iew.iewDispNonSpecInsts        20829                       # Number of dispatched non-speculative instructions
system.switch_cpus00.iew.iewIQFullEvents       104442                       # Number of times the IQ has become full, causing a stall
system.switch_cpus00.iew.iewLSQFullEvents            1                       # Number of times the LSQ has become full, causing a stall
system.switch_cpus00.iew.memOrderViolationEvents         1290                       # Number of memory order violations
system.switch_cpus00.iew.predictedTakenIncorrect      1171442                       # Number of branches that were predicted taken incorrectly
system.switch_cpus00.iew.predictedNotTakenIncorrect      1142300                       # Number of branches that were predicted not taken incorrectly
system.switch_cpus00.iew.branchMispredicts      2313742                       # Number of branch mispredicts detected at execute
system.switch_cpus00.iew.iewExecutedInsts    133491278                       # Number of executed instructions
system.switch_cpus00.iew.iewExecLoadInsts     11762289                       # Number of load instructions executed
system.switch_cpus00.iew.iewExecSquashedInsts      1995398                       # Number of squashed instructions skipped in execute
system.switch_cpus00.iew.exec_swp                   0                       # number of swp insts executed
system.switch_cpus00.iew.exec_nop                 118                       # number of nop insts executed
system.switch_cpus00.iew.exec_refs           19177180                       # number of memory reference insts executed
system.switch_cpus00.iew.exec_branches       18673514                       # Number of branches executed
system.switch_cpus00.iew.exec_stores          7414891                       # Number of stores executed
system.switch_cpus00.iew.exec_rate           0.473582                       # Inst execution rate
system.switch_cpus00.iew.wb_sent            133236551                       # cumulative count of insts sent to commit
system.switch_cpus00.iew.wb_count           133234476                       # cumulative count of insts written-back
system.switch_cpus00.iew.wb_producers        79196062                       # num instructions producing a value
system.switch_cpus00.iew.wb_consumers       207494868                       # num instructions consuming a value
system.switch_cpus00.iew.wb_penalized               0                       # number of instrctions required to write to 'other' IQ
system.switch_cpus00.iew.wb_rate             0.472671                       # insts written-back per cycle
system.switch_cpus00.iew.wb_fanout           0.381677                       # average fanout of values written-back
system.switch_cpus00.iew.wb_penalized_rate            0                       # fraction of instructions written-back that wrote to 'other' IQ
system.switch_cpus00.commit.commitCommittedInsts    100000003                       # The number of committed instructions
system.switch_cpus00.commit.commitCommittedOps    122687896                       # The number of committed instructions
system.switch_cpus00.commit.commitSquashedInsts     20817281                       # The number of squashed insts skipped by commit
system.switch_cpus00.commit.commitNonSpecStalls        33450                       # The number of times commit has been forced to stall to communicate backwards
system.switch_cpus00.commit.branchMispredicts      2037733                       # The number of times a branch was mispredicted
system.switch_cpus00.commit.committed_per_cycle::samples    241996335                       # Number of insts commited each cycle
system.switch_cpus00.commit.committed_per_cycle::mean     0.506982                       # Number of insts commited each cycle
system.switch_cpus00.commit.committed_per_cycle::stdev     1.323605                       # Number of insts commited each cycle
system.switch_cpus00.commit.committed_per_cycle::underflows            0      0.00%      0.00% # Number of insts commited each cycle
system.switch_cpus00.commit.committed_per_cycle::0    191877441     79.29%     79.29% # Number of insts commited each cycle
system.switch_cpus00.commit.committed_per_cycle::1     23245163      9.61%     88.89% # Number of insts commited each cycle
system.switch_cpus00.commit.committed_per_cycle::2      9739662      4.02%     92.92% # Number of insts commited each cycle
system.switch_cpus00.commit.committed_per_cycle::3      5848967      2.42%     95.34% # Number of insts commited each cycle
system.switch_cpus00.commit.committed_per_cycle::4      4053458      1.68%     97.01% # Number of insts commited each cycle
system.switch_cpus00.commit.committed_per_cycle::5      2611778      1.08%     98.09% # Number of insts commited each cycle
system.switch_cpus00.commit.committed_per_cycle::6      1361247      0.56%     98.65% # Number of insts commited each cycle
system.switch_cpus00.commit.committed_per_cycle::7      1092648      0.45%     99.10% # Number of insts commited each cycle
system.switch_cpus00.commit.committed_per_cycle::8      2165971      0.90%    100.00% # Number of insts commited each cycle
system.switch_cpus00.commit.committed_per_cycle::overflows            0      0.00%    100.00% # Number of insts commited each cycle
system.switch_cpus00.commit.committed_per_cycle::min_value            0                       # Number of insts commited each cycle
system.switch_cpus00.commit.committed_per_cycle::max_value            8                       # Number of insts commited each cycle
system.switch_cpus00.commit.committed_per_cycle::total    241996335                       # Number of insts commited each cycle
system.switch_cpus00.commit.committedInsts    100000003                       # Number of instructions committed
system.switch_cpus00.commit.committedOps    122687896                       # Number of ops (including micro ops) committed
system.switch_cpus00.commit.swp_count               0                       # Number of s/w prefetches committed
system.switch_cpus00.commit.refs             18584355                       # Number of memory references committed
system.switch_cpus00.commit.loads            11283683                       # Number of loads committed
system.switch_cpus00.commit.membars             16688                       # Number of memory barriers committed
system.switch_cpus00.commit.branches         17558823                       # Number of branches committed
system.switch_cpus00.commit.fp_insts                0                       # Number of committed floating point instructions.
system.switch_cpus00.commit.int_insts       110607967                       # Number of committed integer instructions.
system.switch_cpus00.commit.function_calls      2496073                       # Number of function calls committed.
system.switch_cpus00.commit.bw_lim_events      2165971                       # number cycles where commit BW limit reached
system.switch_cpus00.commit.bw_limited              0                       # number of insts not committed due to BW limits
system.switch_cpus00.rob.rob_reads          383334865                       # The number of ROB reads
system.switch_cpus00.rob.rob_writes         290704632                       # The number of ROB writes
system.switch_cpus00.timesIdled               3028294                       # Number of times that the entire CPU went into an idle state and unscheduled itself
system.switch_cpus00.idleCycles              36185005                       # Total number of cycles that the CPU has spent unscheduled due to idling
system.switch_cpus00.committedInsts         100000003                       # Number of Instructions Simulated
system.switch_cpus00.committedOps           122687896                       # Number of Ops (including micro ops) Simulated
system.switch_cpus00.committedInsts_total    100000003                       # Number of Instructions Simulated
system.switch_cpus00.cpi                     2.818755                       # CPI: Cycles Per Instruction
system.switch_cpus00.cpi_total               2.818755                       # CPI: Total CPI of All Threads
system.switch_cpus00.ipc                     0.354767                       # IPC: Instructions Per Cycle
system.switch_cpus00.ipc_total               0.354767                       # IPC: Total IPC of All Threads
system.switch_cpus00.int_regfile_reads      602116023                       # number of integer regfile reads
system.switch_cpus00.int_regfile_writes     184906249                       # number of integer regfile writes
system.switch_cpus00.misc_regfile_reads     134172138                       # number of misc regfile reads
system.switch_cpus00.misc_regfile_writes        33420                       # number of misc regfile writes
system.switch_cpus01.dtb.inst_hits                  0                       # ITB inst hits
system.switch_cpus01.dtb.inst_misses                0                       # ITB inst misses
system.switch_cpus01.dtb.read_hits                  0                       # DTB read hits
system.switch_cpus01.dtb.read_misses                0                       # DTB read misses
system.switch_cpus01.dtb.write_hits                 0                       # DTB write hits
system.switch_cpus01.dtb.write_misses               0                       # DTB write misses
system.switch_cpus01.dtb.flush_tlb                  0                       # Number of times complete TLB was flushed
system.switch_cpus01.dtb.flush_tlb_mva              0                       # Number of times TLB was flushed by MVA
system.switch_cpus01.dtb.flush_tlb_mva_asid            0                       # Number of times TLB was flushed by MVA & ASID
system.switch_cpus01.dtb.flush_tlb_asid             0                       # Number of times TLB was flushed by ASID
system.switch_cpus01.dtb.flush_entries              0                       # Number of entries that have been flushed from TLB
system.switch_cpus01.dtb.align_faults               0                       # Number of TLB faults due to alignment restrictions
system.switch_cpus01.dtb.prefetch_faults            0                       # Number of TLB faults due to prefetch
system.switch_cpus01.dtb.domain_faults              0                       # Number of TLB faults due to domain restrictions
system.switch_cpus01.dtb.perms_faults               0                       # Number of TLB faults due to permissions restrictions
system.switch_cpus01.dtb.read_accesses              0                       # DTB read accesses
system.switch_cpus01.dtb.write_accesses             0                       # DTB write accesses
system.switch_cpus01.dtb.inst_accesses              0                       # ITB inst accesses
system.switch_cpus01.dtb.hits                       0                       # DTB hits
system.switch_cpus01.dtb.misses                     0                       # DTB misses
system.switch_cpus01.dtb.accesses                   0                       # DTB accesses
[...]
system.cpu15.icache.demand_avg_miss_latency::total 1821255.250000                       # average overall miss latency
system.cpu15.icache.overall_avg_miss_latency::switch_cpus15.inst 1821255.250000                       # average overall miss latency
system.cpu15.icache.overall_avg_miss_latency::total 1821255.250000                       # average overall miss latency
system.cpu15.icache.blocked_cycles::no_mshrs       838226                       # number of cycles access was blocked
system.cpu15.icache.blocked_cycles::no_targets            0                       # number of cycles access was blocked
system.cpu15.icache.blocked::no_mshrs               2                       # number of cycles access was blocked
system.cpu15.icache.blocked::no_targets             0                       # number of cycles access was blocked
system.cpu15.icache.avg_blocked_cycles::no_mshrs       419113                       # average number of cycles each access was blocked
system.cpu15.icache.avg_blocked_cycles::no_targets          nan                       # average number of cycles each access was blocked
system.cpu15.icache.fast_writes                     0                       # number of fast writes performed
system.cpu15.icache.cache_copies                    0                       # number of cache copies performed
system.cpu15.icache.ReadReq_mshr_hits::switch_cpus15.inst           16                       # number of ReadReq MSHR hits
system.cpu15.icache.ReadReq_mshr_hits::total           16                       # number of ReadReq MSHR hits
system.cpu15.icache.demand_mshr_hits::switch_cpus15.inst           16                       # number of demand (read+write) MSHR hits
system.cpu15.icache.demand_mshr_hits::total           16                       # number of demand (read+write) MSHR hits
system.cpu15.icache.overall_mshr_hits::switch_cpus15.inst           16                       # number of overall MSHR hits
system.cpu15.icache.overall_mshr_hits::total           16                       # number of overall MSHR hits
system.cpu15.icache.ReadReq_mshr_misses::switch_cpus15.inst           44                       # number of ReadReq MSHR misses
system.cpu15.icache.ReadReq_mshr_misses::total           44                       # number of ReadReq MSHR misses
system.cpu15.icache.demand_mshr_misses::switch_cpus15.inst           44                       # number of demand (read+write) MSHR misses
system.cpu15.icache.demand_mshr_misses::total           44                       # number of demand (read+write) MSHR misses
system.cpu15.icache.overall_mshr_misses::switch_cpus15.inst           44                       # number of overall MSHR misses
system.cpu15.icache.overall_mshr_misses::total           44                       # number of overall MSHR misses
system.cpu15.icache.ReadReq_mshr_miss_latency::switch_cpus15.inst     94005990                       # number of ReadReq MSHR miss cycles
system.cpu15.icache.ReadReq_mshr_miss_latency::total     94005990                       # number of ReadReq MSHR miss cycles
system.cpu15.icache.demand_mshr_miss_latency::switch_cpus15.inst     94005990                       # number of demand (read+write) MSHR miss cycles
system.cpu15.icache.demand_mshr_miss_latency::total     94005990                       # number of demand (read+write) MSHR miss cycles
system.cpu15.icache.overall_mshr_miss_latency::switch_cpus15.inst     94005990                       # number of overall MSHR miss cycles
system.cpu15.icache.overall_mshr_miss_latency::total     94005990                       # number of overall MSHR miss cycles
system.cpu15.icache.ReadReq_mshr_miss_rate::switch_cpus15.inst     0.000003                       # mshr miss rate for ReadReq accesses
system.cpu15.icache.ReadReq_mshr_miss_rate::total     0.000003                       # mshr miss rate for ReadReq accesses
system.cpu15.icache.demand_mshr_miss_rate::switch_cpus15.inst     0.000003                       # mshr miss rate for demand accesses
system.cpu15.icache.demand_mshr_miss_rate::total     0.000003                       # mshr miss rate for demand accesses
system.cpu15.icache.overall_mshr_miss_rate::switch_cpus15.inst     0.000003                       # mshr miss rate for overall accesses
system.cpu15.icache.overall_mshr_miss_rate::total     0.000003                       # mshr miss rate for overall accesses
system.cpu15.icache.ReadReq_avg_mshr_miss_latency::switch_cpus15.inst 2136499.772727                       # average ReadReq mshr miss latency
system.cpu15.icache.ReadReq_avg_mshr_miss_latency::total 2136499.772727                       # average ReadReq mshr miss latency
system.cpu15.icache.demand_avg_mshr_miss_latency::switch_cpus15.inst 2136499.772727                       # average overall mshr miss latency
system.cpu15.icache.demand_avg_mshr_miss_latency::total 2136499.772727                       # average overall mshr miss latency
system.cpu15.icache.overall_avg_mshr_miss_latency::switch_cpus15.inst 2136499.772727                       # average overall mshr miss latency
system.cpu15.icache.overall_avg_mshr_miss_latency::total 2136499.772727                       # average overall mshr miss latency
system.cpu15.icache.no_allocate_misses              0                       # Number of misses that were no-allocate
system.cpu15.dcache.replacements                43158                       # number of replacements
system.cpu15.dcache.tagsinuse                     256                       # Cycle average of tags in use
system.cpu15.dcache.total_refs              167225588                       # Total number of references to valid blocks.
system.cpu15.dcache.sampled_refs                43414                       # Sample count of references to valid blocks.
system.cpu15.dcache.avg_refs              3851.881605                       # Average number of references to valid blocks.
system.cpu15.dcache.warmup_cycle                    0                       # Cycle when the warmup percentage was hit.
system.cpu15.dcache.occ_blocks::switch_cpus15.data   233.430700                       # Average occupied blocks per requestor
system.cpu15.dcache.occ_blocks::cpu15.data    22.569300                       # Average occupied blocks per requestor
system.cpu15.dcache.occ_percent::switch_cpus15.data     0.911839                       # Average percentage of cache occupancy
system.cpu15.dcache.occ_percent::cpu15.data     0.088161                       # Average percentage of cache occupancy
system.cpu15.dcache.occ_percent::total              1                       # Average percentage of cache occupancy
system.cpu15.dcache.ReadReq_hits::switch_cpus15.data      8846271                       # number of ReadReq hits
system.cpu15.dcache.ReadReq_hits::total       8846271                       # number of ReadReq hits
system.cpu15.dcache.WriteReq_hits::switch_cpus15.data      7446674                       # number of WriteReq hits
system.cpu15.dcache.WriteReq_hits::total      7446674                       # number of WriteReq hits
system.cpu15.dcache.LoadLockedReq_hits::switch_cpus15.data        19086                       # number of LoadLockedReq hits
system.cpu15.dcache.LoadLockedReq_hits::total        19086                       # number of LoadLockedReq hits
system.cpu15.dcache.StoreCondReq_hits::switch_cpus15.data        17931                       # number of StoreCondReq hits
system.cpu15.dcache.StoreCondReq_hits::total        17931                       # number of StoreCondReq hits
system.cpu15.dcache.demand_hits::switch_cpus15.data     16292945                       # number of demand (read+write) hits
system.cpu15.dcache.demand_hits::total       16292945                       # number of demand (read+write) hits
system.cpu15.dcache.overall_hits::switch_cpus15.data     16292945                       # number of overall hits
system.cpu15.dcache.overall_hits::total      16292945                       # number of overall hits
system.cpu15.dcache.ReadReq_misses::switch_cpus15.data       138099                       # number of ReadReq misses
system.cpu15.dcache.ReadReq_misses::total       138099                       # number of ReadReq misses
system.cpu15.dcache.WriteReq_misses::switch_cpus15.data          957                       # number of WriteReq misses
system.cpu15.dcache.WriteReq_misses::total          957                       # number of WriteReq misses
system.cpu15.dcache.demand_misses::switch_cpus15.data       139056                       # number of demand (read+write) misses
system.cpu15.dcache.demand_misses::total       139056                       # number of demand (read+write) misses
system.cpu15.dcache.overall_misses::switch_cpus15.data       139056                       # number of overall misses
system.cpu15.dcache.overall_misses::total       139056                       # number of overall misses
system.cpu15.dcache.ReadReq_miss_latency::switch_cpus15.data  46235079127                       # number of ReadReq miss cycles
system.cpu15.dcache.ReadReq_miss_latency::total  46235079127                       # number of ReadReq miss cycles
system.cpu15.dcache.WriteReq_miss_latency::switch_cpus15.data     80713783                       # number of WriteReq miss cycles
system.cpu15.dcache.WriteReq_miss_latency::total     80713783                       # number of WriteReq miss cycles
system.cpu15.dcache.demand_miss_latency::switch_cpus15.data  46315792910                       # number of demand (read+write) miss cycles
system.cpu15.dcache.demand_miss_latency::total  46315792910                       # number of demand (read+write) miss cycles
system.cpu15.dcache.overall_miss_latency::switch_cpus15.data  46315792910                       # number of overall miss cycles
system.cpu15.dcache.overall_miss_latency::total  46315792910                       # number of overall miss cycles
system.cpu15.dcache.ReadReq_accesses::switch_cpus15.data      8984370                       # number of ReadReq accesses(hits+misses)
system.cpu15.dcache.ReadReq_accesses::total      8984370                       # number of ReadReq accesses(hits+misses)
system.cpu15.dcache.WriteReq_accesses::switch_cpus15.data      7447631                       # number of WriteReq accesses(hits+misses)
system.cpu15.dcache.WriteReq_accesses::total      7447631                       # number of WriteReq accesses(hits+misses)
system.cpu15.dcache.LoadLockedReq_accesses::switch_cpus15.data        19086                       # number of LoadLockedReq accesses(hits+misses)
system.cpu15.dcache.LoadLockedReq_accesses::total        19086                       # number of LoadLockedReq accesses(hits+misses)
system.cpu15.dcache.StoreCondReq_accesses::switch_cpus15.data        17931                       # number of StoreCondReq accesses(hits+misses)
system.cpu15.dcache.StoreCondReq_accesses::total        17931                       # number of StoreCondReq accesses(hits+misses)
system.cpu15.dcache.demand_accesses::switch_cpus15.data     16432001                       # number of demand (read+write) accesses
system.cpu15.dcache.demand_accesses::total     16432001                       # number of demand (read+write) accesses
system.cpu15.dcache.overall_accesses::switch_cpus15.data     16432001                       # number of overall (read+write) accesses
system.cpu15.dcache.overall_accesses::total     16432001                       # number of overall (read+write) accesses
system.cpu15.dcache.ReadReq_miss_rate::switch_cpus15.data     0.015371                       # miss rate for ReadReq accesses
system.cpu15.dcache.ReadReq_miss_rate::total     0.015371                       # miss rate for ReadReq accesses
system.cpu15.dcache.WriteReq_miss_rate::switch_cpus15.data     0.000128                       # miss rate for WriteReq accesses
system.cpu15.dcache.WriteReq_miss_rate::total     0.000128                       # miss rate for WriteReq accesses
system.cpu15.dcache.demand_miss_rate::switch_cpus15.data     0.008463                       # miss rate for demand accesses
system.cpu15.dcache.demand_miss_rate::total     0.008463                       # miss rate for demand accesses
system.cpu15.dcache.overall_miss_rate::switch_cpus15.data     0.008463                       # miss rate for overall accesses
system.cpu15.dcache.overall_miss_rate::total     0.008463                       # miss rate for overall accesses
system.cpu15.dcache.ReadReq_avg_miss_latency::switch_cpus15.data 334796.625081                       # average ReadReq miss latency
system.cpu15.dcache.ReadReq_avg_miss_latency::total 334796.625081                       # average ReadReq miss latency
system.cpu15.dcache.WriteReq_avg_miss_latency::switch_cpus15.data 84340.421108                       # average WriteReq miss latency
system.cpu15.dcache.WriteReq_avg_miss_latency::total 84340.421108                       # average WriteReq miss latency
system.cpu15.dcache.demand_avg_miss_latency::switch_cpus15.data 333072.955572                       # average overall miss latency
system.cpu15.dcache.demand_avg_miss_latency::total 333072.955572                       # average overall miss latency
system.cpu15.dcache.overall_avg_miss_latency::switch_cpus15.data 333072.955572                       # average overall miss latency
system.cpu15.dcache.overall_avg_miss_latency::total 333072.955572                       # average overall miss latency
system.cpu15.dcache.blocked_cycles::no_mshrs            0                       # number of cycles access was blocked
system.cpu15.dcache.blocked_cycles::no_targets            0                       # number of cycles access was blocked
system.cpu15.dcache.blocked::no_mshrs               0                       # number of cycles access was blocked
system.cpu15.dcache.blocked::no_targets             0                       # number of cycles access was blocked
system.cpu15.dcache.avg_blocked_cycles::no_mshrs          nan                       # average number of cycles each access was blocked
system.cpu15.dcache.avg_blocked_cycles::no_targets          nan                       # average number of cycles each access was blocked
system.cpu15.dcache.fast_writes                     0                       # number of fast writes performed
system.cpu15.dcache.cache_copies                    0                       # number of cache copies performed
system.cpu15.dcache.writebacks::writebacks         9758                       # number of writebacks
system.cpu15.dcache.writebacks::total            9758                       # number of writebacks
system.cpu15.dcache.ReadReq_mshr_hits::switch_cpus15.data        95103                       # number of ReadReq MSHR hits
system.cpu15.dcache.ReadReq_mshr_hits::total        95103                       # number of ReadReq MSHR hits
system.cpu15.dcache.WriteReq_mshr_hits::switch_cpus15.data          795                       # number of WriteReq MSHR hits
system.cpu15.dcache.WriteReq_mshr_hits::total          795                       # number of WriteReq MSHR hits
system.cpu15.dcache.demand_mshr_hits::switch_cpus15.data        95898                       # number of demand (read+write) MSHR hits
system.cpu15.dcache.demand_mshr_hits::total        95898                       # number of demand (read+write) MSHR hits
system.cpu15.dcache.overall_mshr_hits::switch_cpus15.data        95898                       # number of overall MSHR hits
system.cpu15.dcache.overall_mshr_hits::total        95898                       # number of overall MSHR hits
system.cpu15.dcache.ReadReq_mshr_misses::switch_cpus15.data        42996                       # number of ReadReq MSHR misses
system.cpu15.dcache.ReadReq_mshr_misses::total        42996                       # number of ReadReq MSHR misses
system.cpu15.dcache.WriteReq_mshr_misses::switch_cpus15.data          162                       # number of WriteReq MSHR misses
system.cpu15.dcache.WriteReq_mshr_misses::total          162                       # number of WriteReq MSHR misses
system.cpu15.dcache.demand_mshr_misses::switch_cpus15.data        43158                       # number of demand (read+write) MSHR misses
system.cpu15.dcache.demand_mshr_misses::total        43158                       # number of demand (read+write) MSHR misses
system.cpu15.dcache.overall_mshr_misses::switch_cpus15.data        43158                       # number of overall MSHR misses
system.cpu15.dcache.overall_mshr_misses::total        43158                       # number of overall MSHR misses
system.cpu15.dcache.ReadReq_mshr_miss_latency::switch_cpus15.data  12396490512                       # number of ReadReq MSHR miss cycles
system.cpu15.dcache.ReadReq_mshr_miss_latency::total  12396490512                       # number of ReadReq MSHR miss cycles
system.cpu15.dcache.WriteReq_mshr_miss_latency::switch_cpus15.data     10451422                       # number of WriteReq MSHR miss cycles
system.cpu15.dcache.WriteReq_mshr_miss_latency::total     10451422                       # number of WriteReq MSHR miss cycles
system.cpu15.dcache.demand_mshr_miss_latency::switch_cpus15.data  12406941934                       # number of demand (read+write) MSHR miss cycles
system.cpu15.dcache.demand_mshr_miss_latency::total  12406941934                       # number of demand (read+write) MSHR miss cycles
system.cpu15.dcache.overall_mshr_miss_latency::switch_cpus15.data  12406941934                       # number of overall MSHR miss cycles
system.cpu15.dcache.overall_mshr_miss_latency::total  12406941934                       # number of overall MSHR miss cycles
system.cpu15.dcache.ReadReq_mshr_miss_rate::switch_cpus15.data     0.004786                       # mshr miss rate for ReadReq accesses
system.cpu15.dcache.ReadReq_mshr_miss_rate::total     0.004786                       # mshr miss rate for ReadReq accesses
system.cpu15.dcache.WriteReq_mshr_miss_rate::switch_cpus15.data     0.000022                       # mshr miss rate for WriteReq accesses
system.cpu15.dcache.WriteReq_mshr_miss_rate::total     0.000022                       # mshr miss rate for WriteReq accesses
system.cpu15.dcache.demand_mshr_miss_rate::switch_cpus15.data     0.002626                       # mshr miss rate for demand accesses
system.cpu15.dcache.demand_mshr_miss_rate::total     0.002626                       # mshr miss rate for demand accesses
system.cpu15.dcache.overall_mshr_miss_rate::switch_cpus15.data     0.002626                       # mshr miss rate for overall accesses
system.cpu15.dcache.overall_mshr_miss_rate::total     0.002626                       # mshr miss rate for overall accesses
system.cpu15.dcache.ReadReq_avg_mshr_miss_latency::switch_cpus15.data 288317.297237                       # average ReadReq mshr miss latency
system.cpu15.dcache.ReadReq_avg_mshr_miss_latency::total 288317.297237                       # average ReadReq mshr miss latency
system.cpu15.dcache.WriteReq_avg_mshr_miss_latency::switch_cpus15.data 64514.950617                       # average WriteReq mshr miss latency
system.cpu15.dcache.WriteReq_avg_mshr_miss_latency::total 64514.950617                       # average WriteReq mshr miss latency
system.cpu15.dcache.demand_avg_mshr_miss_latency::switch_cpus15.data 287477.221697                       # average overall mshr miss latency
system.cpu15.dcache.demand_avg_mshr_miss_latency::total 287477.221697                       # average overall mshr miss latency
system.cpu15.dcache.overall_avg_mshr_miss_latency::switch_cpus15.data 287477.221697                       # average overall mshr miss latency
system.cpu15.dcache.overall_avg_mshr_miss_latency::total 287477.221697                       # average overall mshr miss latency
system.cpu15.dcache.no_allocate_misses              0                       # Number of misses that were no-allocate

---------- End Simulation Statistics   ----------
