
---------- Begin Simulation Statistics ----------
sim_seconds                                  0.033296                       # Number of seconds simulated
sim_ticks                                 33296100588                       # Number of ticks simulated
final_tick                               604799023707                       # Number of ticks from beginning of simulation (restored from checkpoints and never reset)
sim_freq                                 1000000000000                       # Frequency of simulated ticks
host_inst_rate                                 267402                       # Simulator instruction rate (inst/s)
host_op_rate                                   342561                       # Simulator op (including micro ops) rate (op/s)
host_tick_rate                                1920377                       # Simulator tick rate (ticks/s)
host_mem_usage                               16952832                       # Number of bytes of host memory used
host_seconds                                 17338.32                       # Real time elapsed on the host
sim_insts                                  4636304661                       # Number of instructions simulated
sim_ops                                    5939438063                       # Number of ops (including micro ops) simulated
system.physmem.bytes_read::switch_cpus0.inst         1920                       # Number of bytes read from this memory
system.physmem.bytes_read::switch_cpus0.data      1263488                       # Number of bytes read from this memory
system.physmem.bytes_read::switch_cpus1.inst         1664                       # Number of bytes read from this memory
system.physmem.bytes_read::switch_cpus1.data      1396992                       # Number of bytes read from this memory
system.physmem.bytes_read::switch_cpus2.inst         1792                       # Number of bytes read from this memory
system.physmem.bytes_read::switch_cpus2.data       214784                       # Number of bytes read from this memory
system.physmem.bytes_read::switch_cpus3.inst         1664                       # Number of bytes read from this memory
system.physmem.bytes_read::switch_cpus3.data       388480                       # Number of bytes read from this memory
system.physmem.bytes_read::total              3270784                       # Number of bytes read from this memory
system.physmem.bytes_inst_read::switch_cpus0.inst         1920                       # Number of instructions bytes read from this memory
system.physmem.bytes_inst_read::switch_cpus1.inst         1664                       # Number of instructions bytes read from this memory
system.physmem.bytes_inst_read::switch_cpus2.inst         1792                       # Number of instructions bytes read from this memory
system.physmem.bytes_inst_read::switch_cpus3.inst         1664                       # Number of instructions bytes read from this memory
system.physmem.bytes_inst_read::total            7040                       # Number of instructions bytes read from this memory
system.physmem.bytes_written::writebacks      1220480                       # Number of bytes written to this memory
system.physmem.bytes_written::total           1220480                       # Number of bytes written to this memory
system.physmem.num_reads::switch_cpus0.inst           15                       # Number of read requests responded to by this memory
system.physmem.num_reads::switch_cpus0.data         9871                       # Number of read requests responded to by this memory
system.physmem.num_reads::switch_cpus1.inst           13                       # Number of read requests responded to by this memory
system.physmem.num_reads::switch_cpus1.data        10914                       # Number of read requests responded to by this memory
system.physmem.num_reads::switch_cpus2.inst           14                       # Number of read requests responded to by this memory
system.physmem.num_reads::switch_cpus2.data         1678                       # Number of read requests responded to by this memory
system.physmem.num_reads::switch_cpus3.inst           13                       # Number of read requests responded to by this memory
system.physmem.num_reads::switch_cpus3.data         3035                       # Number of read requests responded to by this memory
system.physmem.num_reads::total                 25553                       # Number of read requests responded to by this memory
system.physmem.num_writes::writebacks            9535                       # Number of write requests responded to by this memory
system.physmem.num_writes::functional               0                       # Number of write requests responded to by this memory
system.physmem.num_writes::interrupt                0                       # Number of write requests responded to by this memory
system.physmem.num_writes::switch_cpus0.dtb.walker            0                       # Number of write requests responded to by this memory
system.physmem.num_writes::switch_cpus0.itb.walker            0                       # Number of write requests responded to by this memory
system.physmem.num_writes::switch_cpus0.inst            0                       # Number of write requests responded to by this memory
system.physmem.num_writes::switch_cpus0.data            0                       # Number of write requests responded to by this memory
system.physmem.num_writes::switch_cpus1.dtb.walker            0                       # Number of write requests responded to by this memory
system.physmem.num_writes::switch_cpus1.itb.walker            0                       # Number of write requests responded to by this memory
system.physmem.num_writes::switch_cpus1.inst            0                       # Number of write requests responded to by this memory
system.physmem.num_writes::switch_cpus1.data            0                       # Number of write requests responded to by this memory
system.physmem.num_writes::switch_cpus2.dtb.walker            0                       # Number of write requests responded to by this memory
system.physmem.num_writes::switch_cpus2.itb.walker            0                       # Number of write requests responded to by this memory
system.physmem.num_writes::switch_cpus2.inst            0                       # Number of write requests responded to by this memory
system.physmem.num_writes::switch_cpus2.data            0                       # Number of write requests responded to by this memory
system.physmem.num_writes::switch_cpus3.dtb.walker            0                       # Number of write requests responded to by this memory
system.physmem.num_writes::switch_cpus3.itb.walker            0                       # Number of write requests responded to by this memory
system.physmem.num_writes::switch_cpus3.inst            0                       # Number of write requests responded to by this memory
system.physmem.num_writes::switch_cpus3.data            0                       # Number of write requests responded to by this memory
system.physmem.num_writes::cpu0.dtb.walker            0                       # Number of write requests responded to by this memory
system.physmem.num_writes::cpu0.itb.walker            0                       # Number of write requests responded to by this memory
system.physmem.num_writes::cpu0.inst                0                       # Number of write requests responded to by this memory
system.physmem.num_writes::cpu0.data                0                       # Number of write requests responded to by this memory
system.physmem.num_writes::cpu1.dtb.walker            0                       # Number of write requests responded to by this memory
system.physmem.num_writes::cpu1.itb.walker            0                       # Number of write requests responded to by this memory
system.physmem.num_writes::cpu1.inst                0                       # Number of write requests responded to by this memory
system.physmem.num_writes::cpu1.data                0                       # Number of write requests responded to by this memory
system.physmem.num_writes::cpu2.dtb.walker            0                       # Number of write requests responded to by this memory
system.physmem.num_writes::cpu2.itb.walker            0                       # Number of write requests responded to by this memory
system.physmem.num_writes::cpu2.inst                0                       # Number of write requests responded to by this memory
system.physmem.num_writes::cpu2.data                0                       # Number of write requests responded to by this memory
system.physmem.num_writes::cpu3.dtb.walker            0                       # Number of write requests responded to by this memory
system.physmem.num_writes::cpu3.itb.walker            0                       # Number of write requests responded to by this memory
system.physmem.num_writes::cpu3.inst                0                       # Number of write requests responded to by this memory
system.physmem.num_writes::cpu3.data                0                       # Number of write requests responded to by this memory
system.physmem.num_writes::total                 9535                       # Number of write requests responded to by this memory
system.physmem.bw_read::switch_cpus0.inst        57664                       # Total read bandwidth from this memory (bytes/s)
system.physmem.bw_read::switch_cpus0.data     37947026                       # Total read bandwidth from this memory (bytes/s)
system.physmem.bw_read::switch_cpus1.inst        49976                       # Total read bandwidth from this memory (bytes/s)
system.physmem.bw_read::switch_cpus1.data     41956625                       # Total read bandwidth from this memory (bytes/s)
system.physmem.bw_read::switch_cpus2.inst        53820                       # Total read bandwidth from this memory (bytes/s)
system.physmem.bw_read::switch_cpus2.data      6450725                       # Total read bandwidth from this memory (bytes/s)
system.physmem.bw_read::switch_cpus3.inst        49976                       # Total read bandwidth from this memory (bytes/s)
system.physmem.bw_read::switch_cpus3.data     11667432                       # Total read bandwidth from this memory (bytes/s)
system.physmem.bw_read::total                98233245                       # Total read bandwidth from this memory (bytes/s)
system.physmem.bw_inst_read::switch_cpus0.inst        57664                       # Instruction read bandwidth from this memory (bytes/s)
system.physmem.bw_inst_read::switch_cpus1.inst        49976                       # Instruction read bandwidth from this memory (bytes/s)
system.physmem.bw_inst_read::switch_cpus2.inst        53820                       # Instruction read bandwidth from this memory (bytes/s)
system.physmem.bw_inst_read::switch_cpus3.inst        49976                       # Instruction read bandwidth from this memory (bytes/s)
system.physmem.bw_inst_read::total             211436                       # Instruction read bandwidth from this memory (bytes/s)
system.physmem.bw_write::writebacks          36655343                       # Write bandwidth from this memory (bytes/s)
system.physmem.bw_write::total               36655343                       # Write bandwidth from this memory (bytes/s)
system.physmem.bw_total::writebacks          36655343                       # Total bandwidth to/from this memory (bytes/s)
system.physmem.bw_total::switch_cpus0.inst        57664                       # Total bandwidth to/from this memory (bytes/s)
system.physmem.bw_total::switch_cpus0.data     37947026                       # Total bandwidth to/from this memory (bytes/s)
system.physmem.bw_total::switch_cpus1.inst        49976                       # Total bandwidth to/from this memory (bytes/s)
system.physmem.bw_total::switch_cpus1.data     41956625                       # Total bandwidth to/from this memory (bytes/s)
system.physmem.bw_total::switch_cpus2.inst        53820                       # Total bandwidth to/from this memory (bytes/s)
system.physmem.bw_total::switch_cpus2.data      6450725                       # Total bandwidth to/from this memory (bytes/s)
system.physmem.bw_total::switch_cpus3.inst        49976                       # Total bandwidth to/from this memory (bytes/s)
system.physmem.bw_total::switch_cpus3.data     11667432                       # Total bandwidth to/from this memory (bytes/s)
system.physmem.bw_total::total              134888588                       # Total bandwidth to/from this memory (bytes/s)
system.switch_cpus0.dtb.inst_hits                   0                       # ITB inst hits
system.switch_cpus0.dtb.inst_misses                 0                       # ITB inst misses
system.switch_cpus0.dtb.read_hits                   0                       # DTB read hits
system.switch_cpus0.dtb.read_misses                 0                       # DTB read misses
system.switch_cpus0.dtb.write_hits                  0                       # DTB write hits
system.switch_cpus0.dtb.write_misses                0                       # DTB write misses
system.switch_cpus0.dtb.flush_tlb                   0                       # Number of times complete TLB was flushed
system.switch_cpus0.dtb.flush_tlb_mva               0                       # Number of times TLB was flushed by MVA
system.switch_cpus0.dtb.flush_tlb_mva_asid            0                       # Number of times TLB was flushed by MVA & ASID
system.switch_cpus0.dtb.flush_tlb_asid              0                       # Number of times TLB was flushed by ASID
system.switch_cpus0.dtb.flush_entries               0                       # Number of entries that have been flushed from TLB
system.switch_cpus0.dtb.align_faults                0                       # Number of TLB faults due to alignment restrictions
system.switch_cpus0.dtb.prefetch_faults             0                       # Number of TLB faults due to prefetch
system.switch_cpus0.dtb.domain_faults               0                       # Number of TLB faults due to domain restrictions
system.switch_cpus0.dtb.perms_faults                0                       # Number of TLB faults due to permissions restrictions
system.switch_cpus0.dtb.read_accesses               0                       # DTB read accesses
system.switch_cpus0.dtb.write_accesses              0                       # DTB write accesses
system.switch_cpus0.dtb.inst_accesses               0                       # ITB inst accesses
system.switch_cpus0.dtb.hits                        0                       # DTB hits
system.switch_cpus0.dtb.misses                      0                       # DTB misses
system.switch_cpus0.dtb.accesses                    0                       # DTB accesses
system.switch_cpus0.itb.inst_hits                   0                       # ITB inst hits
system.switch_cpus0.itb.inst_misses                 0                       # ITB inst misses
system.switch_cpus0.itb.read_hits                   0                       # DTB read hits
system.switch_cpus0.itb.read_misses                 0                       # DTB read misses
system.switch_cpus0.itb.write_hits                  0                       # DTB write hits
system.switch_cpus0.itb.write_misses                0                       # DTB write misses
system.switch_cpus0.itb.flush_tlb                   0                       # Number of times complete TLB was flushed
system.switch_cpus0.itb.flush_tlb_mva               0                       # Number of times TLB was flushed by MVA
system.switch_cpus0.itb.flush_tlb_mva_asid            0                       # Number of times TLB was flushed by MVA & ASID
system.switch_cpus0.itb.flush_tlb_asid              0                       # Number of times TLB was flushed by ASID
system.switch_cpus0.itb.flush_entries               0                       # Number of entries that have been flushed from TLB
system.switch_cpus0.itb.align_faults                0                       # Number of TLB faults due to alignment restrictions
system.switch_cpus0.itb.prefetch_faults             0                       # Number of TLB faults due to prefetch
system.switch_cpus0.itb.domain_faults               0                       # Number of TLB faults due to domain restrictions
system.switch_cpus0.itb.perms_faults                0                       # Number of TLB faults due to permissions restrictions
system.switch_cpus0.itb.read_accesses               0                       # DTB read accesses
system.switch_cpus0.itb.write_accesses              0                       # DTB write accesses
system.switch_cpus0.itb.inst_accesses               0                       # ITB inst accesses
system.switch_cpus0.itb.hits                        0                       # DTB hits
system.switch_cpus0.itb.misses                      0                       # DTB misses
system.switch_cpus0.itb.accesses                    0                       # DTB accesses
system.cpu0.workload.num_syscalls                   0                       # Number of system calls
system.switch_cpus0.numCycles                79846765                       # number of cpu cycles simulated
system.switch_cpus0.numWorkItemsStarted             0                       # number of work items this cpu started
system.switch_cpus0.numWorkItemsCompleted            0                       # number of work items this cpu completed
system.switch_cpus0.BPredUnit.lookups        28428506                       # Number of BP lookups
system.switch_cpus0.BPredUnit.condPredicted     24857644                       # Number of conditional branches predicted
system.switch_cpus0.BPredUnit.condIncorrect      1803806                       # Number of conditional branches incorrect
system.switch_cpus0.BPredUnit.BTBLookups     14174579                       # Number of BTB lookups
system.switch_cpus0.BPredUnit.BTBHits        13670964                       # Number of BTB hits
system.switch_cpus0.BPredUnit.BTBCorrect            0                       # Number of correct BTB predictions (this stat may not work properly.
system.switch_cpus0.BPredUnit.usedRAS         2044956                       # Number of times the RAS was used to get a target.
system.switch_cpus0.BPredUnit.RASInCorrect        56731                       # Number of incorrect RAS predictions.
system.switch_cpus0.fetch.icacheStallCycles     33528904                       # Number of cycles fetch is stalled on an Icache miss
system.switch_cpus0.fetch.Insts             158188320                       # Number of instructions fetch has processed
system.switch_cpus0.fetch.Branches           28428506                       # Number of branches that fetch encountered
system.switch_cpus0.fetch.predictedBranches     15715920                       # Number of branches that fetch has predicted taken
system.switch_cpus0.fetch.Cycles             32568325                       # Number of cycles fetch has run and was not squashing or blocked
system.switch_cpus0.fetch.SquashCycles        8848864                       # Number of cycles fetch has spent squashing
system.switch_cpus0.fetch.BlockedCycles       3885380                       # Number of cycles fetch has spent blocked
system.switch_cpus0.fetch.PendingTrapStallCycles           18                       # Number of stall cycles due to pending traps
system.switch_cpus0.fetch.CacheLines         16527713                       # Number of cache lines fetched
system.switch_cpus0.fetch.IcacheSquashes       715751                       # Number of outstanding Icache misses that were squashed
system.switch_cpus0.fetch.rateDist::samples     77017427                       # Number of instructions fetched each cycle (Total)
system.switch_cpus0.fetch.rateDist::mean     2.364520                       # Number of instructions fetched each cycle (Total)
system.switch_cpus0.fetch.rateDist::stdev     3.171085                       # Number of instructions fetched each cycle (Total)
system.switch_cpus0.fetch.rateDist::underflows            0      0.00%      0.00% # Number of instructions fetched each cycle (Total)
system.switch_cpus0.fetch.rateDist::0        44449102     57.71%     57.71% # Number of instructions fetched each cycle (Total)
system.switch_cpus0.fetch.rateDist::1         1616953      2.10%     59.81% # Number of instructions fetched each cycle (Total)
system.switch_cpus0.fetch.rateDist::2         2953878      3.84%     63.65% # Number of instructions fetched each cycle (Total)
system.switch_cpus0.fetch.rateDist::3         2767451      3.59%     67.24% # Number of instructions fetched each cycle (Total)
system.switch_cpus0.fetch.rateDist::4         4553607      5.91%     73.15% # Number of instructions fetched each cycle (Total)
system.switch_cpus0.fetch.rateDist::5         4746940      6.16%     79.32% # Number of instructions fetched each cycle (Total)
system.switch_cpus0.fetch.rateDist::6         1128207      1.46%     80.78% # Number of instructions fetched each cycle (Total)
system.switch_cpus0.fetch.rateDist::7          846481      1.10%     81.88% # Number of instructions fetched each cycle (Total)
system.switch_cpus0.fetch.rateDist::8        13954808     18.12%    100.00% # Number of instructions fetched each cycle (Total)
system.switch_cpus0.fetch.rateDist::overflows            0      0.00%    100.00% # Number of instructions fetched each cycle (Total)
system.switch_cpus0.fetch.rateDist::min_value            0                       # Number of instructions fetched each cycle (Total)
system.switch_cpus0.fetch.rateDist::max_value            8                       # Number of instructions fetched each cycle (Total)
system.switch_cpus0.fetch.rateDist::total     77017427                       # Number of instructions fetched each cycle (Total)
system.switch_cpus0.fetch.branchRate         0.356038                       # Number of branch fetches per cycle
system.switch_cpus0.fetch.rate               1.981149                       # Number of inst fetches per cycle
system.switch_cpus0.decode.IdleCycles        34575812                       # Number of cycles decode is idle
system.switch_cpus0.decode.BlockedCycles      3765676                       # Number of cycles decode is blocked
system.switch_cpus0.decode.RunCycles         31519377                       # Number of cycles decode is running
system.switch_cpus0.decode.UnblockCycles       126940                       # Number of cycles decode is unblocking
system.switch_cpus0.decode.SquashCycles       7029612                       # Number of cycles decode is squashing
system.switch_cpus0.decode.BranchResolved      3093168                       # Number of times decode resolved a branch
system.switch_cpus0.decode.BranchMispred         5202                       # Number of times decode detected a branch misprediction
system.switch_cpus0.decode.DecodedInsts     177006241                       # Number of instructions handled by decode
system.switch_cpus0.decode.SquashedInsts         1364                       # Number of squashed instructions handled by decode
system.switch_cpus0.rename.SquashCycles       7029612                       # Number of cycles rename is squashing
system.switch_cpus0.rename.IdleCycles        36024775                       # Number of cycles rename is idle
system.switch_cpus0.rename.BlockCycles        1370037                       # Number of cycles rename is blocking
system.switch_cpus0.rename.serializeStallCycles       426467                       # count of cycles rename stalled for serializing inst
system.switch_cpus0.rename.RunCycles         30180801                       # Number of cycles rename is running
system.switch_cpus0.rename.UnblockCycles      1985726                       # Number of cycles rename is unblocking
system.switch_cpus0.rename.RenamedInsts     172343482                       # Number of instructions processed by rename
system.switch_cpus0.rename.ROBFullEvents            4                       # Number of times rename has blocked due to ROB full
system.switch_cpus0.rename.IQFullEvents        691198                       # Number of times rename has blocked due to IQ full
system.switch_cpus0.rename.LSQFullEvents       783942                       # Number of times rename has blocked due to LSQ full
system.switch_cpus0.rename.RenamedOperands    228836556                       # Number of destination operands rename has renamed
system.switch_cpus0.rename.RenameLookups    784460490                       # Number of register rename lookups that rename has made
system.switch_cpus0.rename.int_rename_lookups    784460490                       # Number of integer rename lookups
system.switch_cpus0.rename.CommittedMaps    148896161                       # Number of HB maps that are committed
system.switch_cpus0.rename.UndoneMaps        79940384                       # Number of HB maps that are undone due to squashing
system.switch_cpus0.rename.serializingInsts        20328                       # count of serializing insts renamed
system.switch_cpus0.rename.tempSerializingInsts         9935                       # count of temporary serializing insts renamed
system.switch_cpus0.rename.skidInsts          5349274                       # count of insts added to the skid buffer
system.switch_cpus0.memDep0.insertedLoads     26502841                       # Number of loads inserted to the mem dependence unit.
system.switch_cpus0.memDep0.insertedStores      5759337                       # Number of stores inserted to the mem dependence unit.
system.switch_cpus0.memDep0.conflictingLoads        98060                       # Number of conflicting loads.
system.switch_cpus0.memDep0.conflictingStores      2080168                       # Number of conflicting stores.
system.switch_cpus0.iq.iqInstsAdded         163096287                       # Number of instructions added to the IQ (excludes non-spec)
system.switch_cpus0.iq.iqNonSpecInstsAdded        19857                       # Number of non-speculative instructions added to the IQ
system.switch_cpus0.iq.iqInstsIssued        137649559                       # Number of instructions issued
system.switch_cpus0.iq.iqSquashedInstsIssued       182243                       # Number of squashed instructions issued
system.switch_cpus0.iq.iqSquashedInstsExamined     48962406                       # Number of squashed instructions iterated over during squash; mainly for profiling
system.switch_cpus0.iq.iqSquashedOperandsExamined    134425338                       # Number of squashed operands that are examined and possibly removed from graph
system.switch_cpus0.iq.iqSquashedNonSpecRemoved           13                       # Number of squashed non-spec instructions that were removed
system.switch_cpus0.iq.issued_per_cycle::samples     77017427                       # Number of insts issued each cycle
system.switch_cpus0.iq.issued_per_cycle::mean     1.787252                       # Number of insts issued each cycle
system.switch_cpus0.iq.issued_per_cycle::stdev     1.840128                       # Number of insts issued each cycle
system.switch_cpus0.iq.issued_per_cycle::underflows            0      0.00%      0.00% # Number of insts issued each cycle
system.switch_cpus0.iq.issued_per_cycle::0     26681792     34.64%     34.64% # Number of insts issued each cycle
system.switch_cpus0.iq.issued_per_cycle::1     14305226     18.57%     53.22% # Number of insts issued each cycle
system.switch_cpus0.iq.issued_per_cycle::2     12595693     16.35%     69.57% # Number of insts issued each cycle
system.switch_cpus0.iq.issued_per_cycle::3      7674708      9.96%     79.54% # Number of insts issued each cycle
system.switch_cpus0.iq.issued_per_cycle::4      8010618     10.40%     89.94% # Number of insts issued each cycle
system.switch_cpus0.iq.issued_per_cycle::5      4729639      6.14%     96.08% # Number of insts issued each cycle
system.switch_cpus0.iq.issued_per_cycle::6      2081676      2.70%     98.78% # Number of insts issued each cycle
system.switch_cpus0.iq.issued_per_cycle::7       556500      0.72%     99.50% # Number of insts issued each cycle
system.switch_cpus0.iq.issued_per_cycle::8       381575      0.50%    100.00% # Number of insts issued each cycle
system.switch_cpus0.iq.issued_per_cycle::overflows            0      0.00%    100.00% # Number of insts issued each cycle
system.switch_cpus0.iq.issued_per_cycle::min_value            0                       # Number of insts issued each cycle
system.switch_cpus0.iq.issued_per_cycle::max_value            8                       # Number of insts issued each cycle
system.switch_cpus0.iq.issued_per_cycle::total     77017427                       # Number of insts issued each cycle
system.switch_cpus0.iq.fu_full::No_OpClass            0      0.00%      0.00% # attempts to use FU when none available
system.switch_cpus0.iq.fu_full::IntAlu         542494     66.36%     66.36% # attempts to use FU when none available
system.switch_cpus0.iq.fu_full::IntMult             0      0.00%     66.36% # attempts to use FU when none available
system.switch_cpus0.iq.fu_full::IntDiv              0      0.00%     66.36% # attempts to use FU when none available
system.switch_cpus0.iq.fu_full::FloatAdd            0      0.00%     66.36% # attempts to use FU when none available
system.switch_cpus0.iq.fu_full::FloatCmp            0      0.00%     66.36% # attempts to use FU when none available
system.switch_cpus0.iq.fu_full::FloatCvt            0      0.00%     66.36% # attempts to use FU when none available
system.switch_cpus0.iq.fu_full::FloatMult            0      0.00%     66.36% # attempts to use FU when none available
system.switch_cpus0.iq.fu_full::FloatDiv            0      0.00%     66.36% # attempts to use FU when none available
system.switch_cpus0.iq.fu_full::FloatSqrt            0      0.00%     66.36% # attempts to use FU when none available
system.switch_cpus0.iq.fu_full::SimdAdd             0      0.00%     66.36% # attempts to use FU when none available
system.switch_cpus0.iq.fu_full::SimdAddAcc            0      0.00%     66.36% # attempts to use FU when none available
system.switch_cpus0.iq.fu_full::SimdAlu             0      0.00%     66.36% # attempts to use FU when none available
system.switch_cpus0.iq.fu_full::SimdCmp             0      0.00%     66.36% # attempts to use FU when none available
system.switch_cpus0.iq.fu_full::SimdCvt             0      0.00%     66.36% # attempts to use FU when none available
system.switch_cpus0.iq.fu_full::SimdMisc            0      0.00%     66.36% # attempts to use FU when none available
system.switch_cpus0.iq.fu_full::SimdMult            0      0.00%     66.36% # attempts to use FU when none available
system.switch_cpus0.iq.fu_full::SimdMultAcc            0      0.00%     66.36% # attempts to use FU when none available
system.switch_cpus0.iq.fu_full::SimdShift            0      0.00%     66.36% # attempts to use FU when none available
system.switch_cpus0.iq.fu_full::SimdShiftAcc            0      0.00%     66.36% # attempts to use FU when none available
system.switch_cpus0.iq.fu_full::SimdSqrt            0      0.00%     66.36% # attempts to use FU when none available
system.switch_cpus0.iq.fu_full::SimdFloatAdd            0      0.00%     66.36% # attempts to use FU when none available
system.switch_cpus0.iq.fu_full::SimdFloatAlu            0      0.00%     66.36% # attempts to use FU when none available
system.switch_cpus0.iq.fu_full::SimdFloatCmp            0      0.00%     66.36% # attempts to use FU when none available
system.switch_cpus0.iq.fu_full::SimdFloatCvt            0      0.00%     66.36% # attempts to use FU when none available
system.switch_cpus0.iq.fu_full::SimdFloatDiv            0      0.00%     66.36% # attempts to use FU when none available
system.switch_cpus0.iq.fu_full::SimdFloatMisc            0      0.00%     66.36% # attempts to use FU when none available
system.switch_cpus0.iq.fu_full::SimdFloatMult            0      0.00%     66.36% # attempts to use FU when none available
system.switch_cpus0.iq.fu_full::SimdFloatMultAcc            0      0.00%     66.36% # attempts to use FU when none available
system.switch_cpus0.iq.fu_full::SimdFloatSqrt            0      0.00%     66.36% # attempts to use FU when none available
system.switch_cpus0.iq.fu_full::MemRead        174924     21.40%     87.76% # attempts to use FU when none available
system.switch_cpus0.iq.fu_full::MemWrite       100103     12.24%    100.00% # attempts to use FU when none available
system.switch_cpus0.iq.fu_full::IprAccess            0      0.00%    100.00% # attempts to use FU when none available
system.switch_cpus0.iq.fu_full::InstPrefetch            0      0.00%    100.00% # attempts to use FU when none available
system.switch_cpus0.iq.FU_type_0::No_OpClass            0      0.00%      0.00% # Type of FU issued
system.switch_cpus0.iq.FU_type_0::IntAlu    107981882     78.45%     78.45% # Type of FU issued
system.switch_cpus0.iq.FU_type_0::IntMult      1085083      0.79%     79.24% # Type of FU issued
system.switch_cpus0.iq.FU_type_0::IntDiv            0      0.00%     79.24% # Type of FU issued
system.switch_cpus0.iq.FU_type_0::FloatAdd            0      0.00%     79.24% # Type of FU issued
system.switch_cpus0.iq.FU_type_0::FloatCmp            0      0.00%     79.24% # Type of FU issued
system.switch_cpus0.iq.FU_type_0::FloatCvt            0      0.00%     79.24% # Type of FU issued
system.switch_cpus0.iq.FU_type_0::FloatMult            0      0.00%     79.24% # Type of FU issued
system.switch_cpus0.iq.FU_type_0::FloatDiv            0      0.00%     79.24% # Type of FU issued
system.switch_cpus0.iq.FU_type_0::FloatSqrt            0      0.00%     79.24% # Type of FU issued
system.switch_cpus0.iq.FU_type_0::SimdAdd            0      0.00%     79.24% # Type of FU issued
system.switch_cpus0.iq.FU_type_0::SimdAddAcc            0      0.00%     79.24% # Type of FU issued
system.switch_cpus0.iq.FU_type_0::SimdAlu            0      0.00%     79.24% # Type of FU issued
system.switch_cpus0.iq.FU_type_0::SimdCmp            0      0.00%     79.24% # Type of FU issued
system.switch_cpus0.iq.FU_type_0::SimdCvt            0      0.00%     79.24% # Type of FU issued
system.switch_cpus0.iq.FU_type_0::SimdMisc            0      0.00%     79.24% # Type of FU issued
system.switch_cpus0.iq.FU_type_0::SimdMult            0      0.00%     79.24% # Type of FU issued
system.switch_cpus0.iq.FU_type_0::SimdMultAcc            0      0.00%     79.24% # Type of FU issued
system.switch_cpus0.iq.FU_type_0::SimdShift            0      0.00%     79.24% # Type of FU issued
system.switch_cpus0.iq.FU_type_0::SimdShiftAcc            0      0.00%     79.24% # Type of FU issued
system.switch_cpus0.iq.FU_type_0::SimdSqrt            0      0.00%     79.24% # Type of FU issued
system.switch_cpus0.iq.FU_type_0::SimdFloatAdd            0      0.00%     79.24% # Type of FU issued
system.switch_cpus0.iq.FU_type_0::SimdFloatAlu            0      0.00%     79.24% # Type of FU issued
system.switch_cpus0.iq.FU_type_0::SimdFloatCmp            0      0.00%     79.24% # Type of FU issued
system.switch_cpus0.iq.FU_type_0::SimdFloatCvt            0      0.00%     79.24% # Type of FU issued
system.switch_cpus0.iq.FU_type_0::SimdFloatDiv            0      0.00%     79.24% # Type of FU issued
system.switch_cpus0.iq.FU_type_0::SimdFloatMisc         9921      0.01%     79.24% # Type of FU issued
system.switch_cpus0.iq.FU_type_0::SimdFloatMult            0      0.00%     79.24% # Type of FU issued
system.switch_cpus0.iq.FU_type_0::SimdFloatMultAcc            0      0.00%     79.24% # Type of FU issued
system.switch_cpus0.iq.FU_type_0::SimdFloatSqrt            0      0.00%     79.24% # Type of FU issued
system.switch_cpus0.iq.FU_type_0::MemRead     23687782     17.21%     96.45% # Type of FU issued
system.switch_cpus0.iq.FU_type_0::MemWrite      4884891      3.55%    100.00% # Type of FU issued
system.switch_cpus0.iq.FU_type_0::IprAccess            0      0.00%    100.00% # Type of FU issued
system.switch_cpus0.iq.FU_type_0::InstPrefetch            0      0.00%    100.00% # Type of FU issued
system.switch_cpus0.iq.FU_type_0::total     137649559                       # Type of FU issued
system.switch_cpus0.iq.rate                  1.723922                       # Inst issue rate
system.switch_cpus0.iq.fu_busy_cnt             817521                       # FU busy when requested
system.switch_cpus0.iq.fu_busy_rate          0.005939                       # FU busy rate (busy events/executed inst)
system.switch_cpus0.iq.int_inst_queue_reads    353316309                       # Number of integer instruction queue reads
system.switch_cpus0.iq.int_inst_queue_writes    212078981                       # Number of integer instruction queue writes
system.switch_cpus0.iq.int_inst_queue_wakeup_accesses    133150374                       # Number of integer instruction queue wakeup accesses
system.switch_cpus0.iq.fp_inst_queue_reads            0                       # Number of floating instruction queue reads
system.switch_cpus0.iq.fp_inst_queue_writes            0                       # Number of floating instruction queue writes
system.switch_cpus0.iq.fp_inst_queue_wakeup_accesses            0                       # Number of floating instruction queue wakeup accesses
system.switch_cpus0.iq.int_alu_accesses     138467080                       # Number of integer alu accesses
system.switch_cpus0.iq.fp_alu_accesses              0                       # Number of floating point alu accesses
system.switch_cpus0.iew.lsq.thread0.forwLoads       337906                       # Number of loads that had data forwarded from stores
system.switch_cpus0.iew.lsq.thread0.invAddrLoads            0                       # Number of loads ignored due to an invalid address
system.switch_cpus0.iew.lsq.thread0.squashedLoads      7572770                       # Number of loads squashed
system.switch_cpus0.iew.lsq.thread0.ignoredResponses          859                       # Number of memory responses ignored because the instruction is squashed
system.switch_cpus0.iew.lsq.thread0.memOrderViolation          431                       # Number of memory ordering violations
system.switch_cpus0.iew.lsq.thread0.squashedStores      1405982                       # Number of stores squashed
system.switch_cpus0.iew.lsq.thread0.invAddrSwpfs            0                       # Number of software prefetches ignored due to an invalid address
system.switch_cpus0.iew.lsq.thread0.blockedLoads            0                       # Number of blocked loads due to partial load-store forwarding
system.switch_cpus0.iew.lsq.thread0.rescheduledLoads            0                       # Number of loads that were rescheduled
system.switch_cpus0.iew.lsq.thread0.cacheBlocked            0                       # Number of times an access to memory failed due to the cache being blocked
system.switch_cpus0.iew.iewIdleCycles               0                       # Number of cycles IEW is idle
system.switch_cpus0.iew.iewSquashCycles       7029612                       # Number of cycles IEW is squashing
system.switch_cpus0.iew.iewBlockCycles         824454                       # Number of cycles IEW is blocking
system.switch_cpus0.iew.iewUnblockCycles        53542                       # Number of cycles IEW is unblocking
system.switch_cpus0.iew.iewDispatchedInsts    163116147                       # Number of instructions dispatched to IQ
system.switch_cpus0.iew.iewDispSquashedInsts       190932                       # Number of squashed instructions skipped by dispatch
system.switch_cpus0.iew.iewDispLoadInsts     26502841                       # Number of dispatched load instructions
system.switch_cpus0.iew.iewDispStoreInsts      5759337                       # Number of dispatched store instructions
system.switch_cpus0.iew.iewDispNonSpecInsts         9935                       # Number of dispatched non-speculative instructions
system.switch_cpus0.iew.iewIQFullEvents         30268                       # Number of times the IQ has become full, causing a stall
system.switch_cpus0.iew.iewLSQFullEvents          182                       # Number of times the LSQ has become full, causing a stall
system.switch_cpus0.iew.memOrderViolationEvents          431                       # Number of memory order violations
system.switch_cpus0.iew.predictedTakenIncorrect       960685                       # Number of branches that were predicted taken incorrectly
system.switch_cpus0.iew.predictedNotTakenIncorrect      1062601                       # Number of branches that were predicted not taken incorrectly
system.switch_cpus0.iew.branchMispredicts      2023286                       # Number of branch mispredicts detected at execute
system.switch_cpus0.iew.iewExecutedInsts    135072462                       # Number of executed instructions
system.switch_cpus0.iew.iewExecLoadInsts     22762914                       # Number of load instructions executed
system.switch_cpus0.iew.iewExecSquashedInsts      2577097                       # Number of squashed instructions skipped in execute
system.switch_cpus0.iew.exec_swp                    0                       # number of swp insts executed
system.switch_cpus0.iew.exec_nop                    3                       # number of nop insts executed
system.switch_cpus0.iew.exec_refs            27530954                       # number of memory reference insts executed
system.switch_cpus0.iew.exec_branches        20412207                       # Number of branches executed
system.switch_cpus0.iew.exec_stores           4768040                       # Number of stores executed
system.switch_cpus0.iew.exec_rate            1.691646                       # Inst execution rate
system.switch_cpus0.iew.wb_sent             133299587                       # cumulative count of insts sent to commit
system.switch_cpus0.iew.wb_count            133150374                       # cumulative count of insts written-back
system.switch_cpus0.iew.wb_producers         81833457                       # num instructions producing a value
system.switch_cpus0.iew.wb_consumers        199764156                       # num instructions consuming a value
system.switch_cpus0.iew.wb_penalized                0                       # number of instrctions required to write to 'other' IQ
system.switch_cpus0.iew.wb_rate              1.667574                       # insts written-back per cycle
system.switch_cpus0.iew.wb_fanout            0.409650                       # average fanout of values written-back
system.switch_cpus0.iew.wb_penalized_rate            0                       # fraction of instructions written-back that wrote to 'other' IQ
system.switch_cpus0.commit.commitCommittedInsts    100000002                       # The number of committed instructions
system.switch_cpus0.commit.commitCommittedOps    113611585                       # The number of committed instructions
system.switch_cpus0.commit.commitSquashedInsts     49505129                       # The number of squashed insts skipped by commit
system.switch_cpus0.commit.commitNonSpecStalls        19844                       # The number of times commit has been forced to stall to communicate backwards
system.switch_cpus0.commit.branchMispredicts      1808559                       # The number of times a branch was mispredicted
system.switch_cpus0.commit.committed_per_cycle::samples     69987815                       # Number of insts commited each cycle
system.switch_cpus0.commit.committed_per_cycle::mean     1.623305                       # Number of insts commited each cycle
system.switch_cpus0.commit.committed_per_cycle::stdev     2.318868                       # Number of insts commited each cycle
system.switch_cpus0.commit.committed_per_cycle::underflows            0      0.00%      0.00% # Number of insts commited each cycle
system.switch_cpus0.commit.committed_per_cycle::0     32178543     45.98%     45.98% # Number of insts commited each cycle
system.switch_cpus0.commit.committed_per_cycle::1     14842520     21.21%     67.18% # Number of insts commited each cycle
system.switch_cpus0.commit.committed_per_cycle::2      8303929     11.86%     79.05% # Number of insts commited each cycle
system.switch_cpus0.commit.committed_per_cycle::3      2811408      4.02%     83.07% # Number of insts commited each cycle
system.switch_cpus0.commit.committed_per_cycle::4      2696752      3.85%     86.92% # Number of insts commited each cycle
system.switch_cpus0.commit.committed_per_cycle::5      1131235      1.62%     88.54% # Number of insts commited each cycle
system.switch_cpus0.commit.committed_per_cycle::6      3013112      4.31%     92.84% # Number of insts commited each cycle
system.switch_cpus0.commit.committed_per_cycle::7       877400      1.25%     94.09% # Number of insts commited each cycle
system.switch_cpus0.commit.committed_per_cycle::8      4132916      5.91%    100.00% # Number of insts commited each cycle
system.switch_cpus0.commit.committed_per_cycle::overflows            0      0.00%    100.00% # Number of insts commited each cycle
system.switch_cpus0.commit.committed_per_cycle::min_value            0                       # Number of insts commited each cycle
system.switch_cpus0.commit.committed_per_cycle::max_value            8                       # Number of insts commited each cycle
system.switch_cpus0.commit.committed_per_cycle::total     69987815                       # Number of insts commited each cycle
system.switch_cpus0.commit.committedInsts    100000002                       # Number of instructions committed
system.switch_cpus0.commit.committedOps     113611585                       # Number of ops (including micro ops) committed
system.switch_cpus0.commit.swp_count                0                       # Number of s/w prefetches committed
system.switch_cpus0.commit.refs              23283426                       # Number of memory references committed
system.switch_cpus0.commit.loads             18930071                       # Number of loads committed
system.switch_cpus0.commit.membars               9922                       # Number of memory barriers committed
system.switch_cpus0.commit.branches          17789105                       # Number of branches committed
system.switch_cpus0.commit.fp_insts                 0                       # Number of committed floating point instructions.
system.switch_cpus0.commit.int_insts         99179496                       # Number of committed integer instructions.
system.switch_cpus0.commit.function_calls      1536069                       # Number of function calls committed.
system.switch_cpus0.commit.bw_lim_events      4132916                       # number cycles where commit BW limit reached
system.switch_cpus0.commit.bw_limited               0                       # number of insts not committed due to BW limits
system.switch_cpus0.rob.rob_reads           228971613                       # The number of ROB reads
system.switch_cpus0.rob.rob_writes          333268978                       # The number of ROB writes
system.switch_cpus0.timesIdled                  26128                       # Number of times that the entire CPU went into an idle state and unscheduled itself
system.switch_cpus0.idleCycles                2829338                       # Total number of cycles that the CPU has spent unscheduled due to idling
system.switch_cpus0.committedInsts          100000002                       # Number of Instructions Simulated
system.switch_cpus0.committedOps            113611585                       # Number of Ops (including micro ops) Simulated
system.switch_cpus0.committedInsts_total    100000002                       # Number of Instructions Simulated
system.switch_cpus0.cpi                      0.798468                       # CPI: Cycles Per Instruction
system.switch_cpus0.cpi_total                0.798468                       # CPI: Total CPI of All Threads
system.switch_cpus0.ipc                      1.252399                       # IPC: Instructions Per Cycle
system.switch_cpus0.ipc_total                1.252399                       # IPC: Total IPC of All Threads
system.switch_cpus0.int_regfile_reads       624785533                       # number of integer regfile reads
system.switch_cpus0.int_regfile_writes      174553048                       # number of integer regfile writes
system.switch_cpus0.misc_regfile_reads      182402101                       # number of misc regfile reads
system.switch_cpus0.misc_regfile_writes         19844                       # number of misc regfile writes
system.switch_cpus1.dtb.inst_hits                   0                       # ITB inst hits
system.switch_cpus1.dtb.inst_misses                 0                       # ITB inst misses
system.switch_cpus1.dtb.read_hits                   0                       # DTB read hits
system.switch_cpus1.dtb.read_misses                 0                       # DTB read misses
system.switch_cpus1.dtb.write_hits                  0                       # DTB write hits
system.switch_cpus1.dtb.write_misses                0                       # DTB write misses
system.switch_cpus1.dtb.flush_tlb                   0                       # Number of times complete TLB was flushed
system.switch_cpus1.dtb.flush_tlb_mva               0                       # Number of times TLB was flushed by MVA
system.switch_cpus1.dtb.flush_tlb_mva_asid            0                       # Number of times TLB was flushed by MVA & ASID
system.switch_cpus1.dtb.flush_tlb_asid              0                       # Number of times TLB was flushed by ASID
system.switch_cpus1.dtb.flush_entries               0                       # Number of entries that have been flushed from TLB
system.switch_cpus1.dtb.align_faults                0                       # Number of TLB faults due to alignment restrictions
system.switch_cpus1.dtb.prefetch_faults             0                       # Number of TLB faults due to prefetch
system.switch_cpus1.dtb.domain_faults               0                       # Number of TLB faults due to domain restrictions
system.switch_cpus1.dtb.perms_faults                0                       # Number of TLB faults due to permissions restrictions
system.switch_cpus1.dtb.read_accesses               0                       # DTB read accesses
system.switch_cpus1.dtb.write_accesses              0                       # DTB write accesses
system.switch_cpus1.dtb.inst_accesses               0                       # ITB inst accesses
system.switch_cpus1.dtb.hits                        0                       # DTB hits
system.switch_cpus1.dtb.misses                      0                       # DTB misses
system.switch_cpus1.dtb.accesses                    0                       # DTB accesses
system.switch_cpus1.itb.inst_hits                   0                       # ITB inst hits
system.switch_cpus1.itb.inst_misses                 0                       # ITB inst misses
system.switch_cpus1.itb.read_hits                   0                       # DTB read hits
system.switch_cpus1.itb.read_misses                 0                       # DTB read misses
system.switch_cpus1.itb.write_hits                  0                       # DTB write hits
system.switch_cpus1.itb.write_misses                0                       # DTB write misses
system.switch_cpus1.itb.flush_tlb                   0                       # Number of times complete TLB was flushed
system.switch_cpus1.itb.flush_tlb_mva               0                       # Number of times TLB was flushed by MVA
system.switch_cpus1.itb.flush_tlb_mva_asid            0                       # Number of times TLB was flushed by MVA & ASID
system.switch_cpus1.itb.flush_tlb_asid              0                       # Number of times TLB was flushed by ASID
system.switch_cpus1.itb.flush_entries               0                       # Number of entries that have been flushed from TLB
system.switch_cpus1.itb.align_faults                0                       # Number of TLB faults due to alignment restrictions
system.switch_cpus1.itb.prefetch_faults             0                       # Number of TLB faults due to prefetch
system.switch_cpus1.itb.domain_faults               0                       # Number of TLB faults due to domain restrictions
system.switch_cpus1.itb.perms_faults                0                       # Number of TLB faults due to permissions restrictions
system.switch_cpus1.itb.read_accesses               0                       # DTB read accesses
system.switch_cpus1.itb.write_accesses              0                       # DTB write accesses
system.switch_cpus1.itb.inst_accesses               0                       # ITB inst accesses
system.switch_cpus1.itb.hits                        0                       # DTB hits
system.switch_cpus1.itb.misses                      0                       # DTB misses
system.switch_cpus1.itb.accesses                    0                       # DTB accesses
system.cpu1.workload.num_syscalls                   0                       # Number of system calls
system.switch_cpus1.numCycles                79846765                       # number of cpu cycles simulated
system.switch_cpus1.numWorkItemsStarted             0                       # number of work items this cpu started
system.switch_cpus1.numWorkItemsCompleted            0                       # number of work items this cpu completed
system.switch_cpus1.BPredUnit.lookups        28221292                       # Number of BP lookups
system.switch_cpus1.BPredUnit.condPredicted     22932793                       # Number of conditional branches predicted
system.switch_cpus1.BPredUnit.condIncorrect      1923192                       # Number of conditional branches incorrect
system.switch_cpus1.BPredUnit.BTBLookups     11817661                       # Number of BTB lookups
system.switch_cpus1.BPredUnit.BTBHits        11021120                       # Number of BTB hits
system.switch_cpus1.BPredUnit.BTBCorrect            0                       # Number of correct BTB predictions (this stat may not work properly.
system.switch_cpus1.BPredUnit.usedRAS         2975988                       # Number of times the RAS was used to get a target.
system.switch_cpus1.BPredUnit.RASInCorrect        81641                       # Number of incorrect RAS predictions.
system.switch_cpus1.fetch.icacheStallCycles     28298366                       # Number of cycles fetch is stalled on an Icache miss
system.switch_cpus1.fetch.Insts             156442151                       # Number of instructions fetch has processed
system.switch_cpus1.fetch.Branches           28221292                       # Number of branches that fetch encountered
system.switch_cpus1.fetch.predictedBranches     13997108                       # Number of branches that fetch has predicted taken
system.switch_cpus1.fetch.Cycles             34412249                       # Number of cycles fetch has run and was not squashing or blocked
system.switch_cpus1.fetch.SquashCycles       10335397                       # Number of cycles fetch has spent squashing
system.switch_cpus1.fetch.BlockedCycles       6424591                       # Number of cycles fetch has spent blocked
system.switch_cpus1.fetch.PendingTrapStallCycles           12                       # Number of stall cycles due to pending traps
system.switch_cpus1.fetch.CacheLines         13860266                       # Number of cache lines fetched
system.switch_cpus1.fetch.IcacheSquashes       827190                       # Number of outstanding Icache misses that were squashed
system.switch_cpus1.fetch.rateDist::samples     77504294                       # Number of instructions fetched each cycle (Total)
system.switch_cpus1.fetch.rateDist::mean     2.493888                       # Number of instructions fetched each cycle (Total)
system.switch_cpus1.fetch.rateDist::stdev     3.299961                       # Number of instructions fetched each cycle (Total)
system.switch_cpus1.fetch.rateDist::underflows            0      0.00%      0.00% # Number of instructions fetched each cycle (Total)
system.switch_cpus1.fetch.rateDist::0        43092045     55.60%     55.60% # Number of instructions fetched each cycle (Total)
system.switch_cpus1.fetch.rateDist::1         3018145      3.89%     59.49% # Number of instructions fetched each cycle (Total)
system.switch_cpus1.fetch.rateDist::2         2447552      3.16%     62.65% # Number of instructions fetched each cycle (Total)
system.switch_cpus1.fetch.rateDist::3         5940163      7.66%     70.32% # Number of instructions fetched each cycle (Total)
system.switch_cpus1.fetch.rateDist::4         1621387      2.09%     72.41% # Number of instructions fetched each cycle (Total)
system.switch_cpus1.fetch.rateDist::5         2065253      2.66%     75.07% # Number of instructions fetched each cycle (Total)
system.switch_cpus1.fetch.rateDist::6         1489324      1.92%     76.99% # Number of instructions fetched each cycle (Total)
system.switch_cpus1.fetch.rateDist::7          837892      1.08%     78.08% # Number of instructions fetched each cycle (Total)
system.switch_cpus1.fetch.rateDist::8        16992533     21.92%    100.00% # Number of instructions fetched each cycle (Total)
system.switch_cpus1.fetch.rateDist::overflows            0      0.00%    100.00% # Number of instructions fetched each cycle (Total)
system.switch_cpus1.fetch.rateDist::min_value            0                       # Number of instructions fetched each cycle (Total)
system.switch_cpus1.fetch.rateDist::max_value            8                       # Number of instructions fetched each cycle (Total)
system.switch_cpus1.fetch.rateDist::total     77504294                       # Number of instructions fetched each cycle (Total)
system.switch_cpus1.fetch.branchRate         0.353443                       # Number of branch fetches per cycle
system.switch_cpus1.fetch.rate               1.959280                       # Number of inst fetches per cycle
system.switch_cpus1.decode.IdleCycles        29605679                       # Number of cycles decode is idle
system.switch_cpus1.decode.BlockedCycles      6251767                       # Number of cycles decode is blocked
system.switch_cpus1.decode.RunCycles         33090627                       # Number of cycles decode is running
system.switch_cpus1.decode.UnblockCycles       224913                       # Number of cycles decode is unblocking
system.switch_cpus1.decode.SquashCycles       8331303                       # Number of cycles decode is squashing
system.switch_cpus1.decode.BranchResolved      4823997                       # Number of times decode resolved a branch
system.switch_cpus1.decode.BranchMispred        38082                       # Number of times decode detected a branch misprediction
system.switch_cpus1.decode.DecodedInsts     187051273                       # Number of instructions handled by decode
system.switch_cpus1.decode.SquashedInsts        72854                       # Number of squashed instructions handled by decode
system.switch_cpus1.rename.SquashCycles       8331303                       # Number of cycles rename is squashing
system.switch_cpus1.rename.IdleCycles        31775627                       # Number of cycles rename is idle
system.switch_cpus1.rename.BlockCycles        1250711                       # Number of cycles rename is blocking
system.switch_cpus1.rename.serializeStallCycles      1799237                       # count of cycles rename stalled for serializing inst
system.switch_cpus1.rename.RunCycles         31094582                       # Number of cycles rename is running
system.switch_cpus1.rename.UnblockCycles      3252829                       # Number of cycles rename is unblocking
system.switch_cpus1.rename.RenamedInsts     180449118                       # Number of instructions processed by rename
system.switch_cpus1.rename.ROBFullEvents        27862                       # Number of times rename has blocked due to ROB full
system.switch_cpus1.rename.IQFullEvents       1348348                       # Number of times rename has blocked due to IQ full
system.switch_cpus1.rename.LSQFullEvents      1011890                       # Number of times rename has blocked due to LSQ full
system.switch_cpus1.rename.FullRegisterEvents          904                       # Number of times there has been no free registers
system.switch_cpus1.rename.RenamedOperands    252606970                       # Number of destination operands rename has renamed
system.switch_cpus1.rename.RenameLookups    842386102                       # Number of register rename lookups that rename has made
system.switch_cpus1.rename.int_rename_lookups    842386102                       # Number of integer rename lookups
system.switch_cpus1.rename.CommittedMaps    154905890                       # Number of HB maps that are committed
system.switch_cpus1.rename.UndoneMaps        97700925                       # Number of HB maps that are undone due to squashing
system.switch_cpus1.rename.serializingInsts        37246                       # count of serializing insts renamed
system.switch_cpus1.rename.tempSerializingInsts        21099                       # count of temporary serializing insts renamed
system.switch_cpus1.rename.skidInsts          8926949                       # count of insts added to the skid buffer
system.switch_cpus1.memDep0.insertedLoads     16820454                       # Number of loads inserted to the mem dependence unit.
system.switch_cpus1.memDep0.insertedStores      8571682                       # Number of stores inserted to the mem dependence unit.
system.switch_cpus1.memDep0.conflictingLoads       134200                       # Number of conflicting loads.
system.switch_cpus1.memDep0.conflictingStores      2771885                       # Number of conflicting stores.
system.switch_cpus1.iq.iqInstsAdded         170644279                       # Number of instructions added to the IQ (excludes non-spec)
system.switch_cpus1.iq.iqNonSpecInstsAdded        35898                       # Number of non-speculative instructions added to the IQ
system.switch_cpus1.iq.iqInstsIssued        135572037                       # Number of instructions issued
system.switch_cpus1.iq.iqSquashedInstsIssued       263082                       # Number of squashed instructions issued
system.switch_cpus1.iq.iqSquashedInstsExamined     58933801                       # Number of squashed instructions iterated over during squash; mainly for profiling
system.switch_cpus1.iq.iqSquashedOperandsExamined    179953847                       # Number of squashed operands that are examined and possibly removed from graph
system.switch_cpus1.iq.iqSquashedNonSpecRemoved         5894                       # Number of squashed non-spec instructions that were removed
system.switch_cpus1.iq.issued_per_cycle::samples     77504294                       # Number of insts issued each cycle
system.switch_cpus1.iq.issued_per_cycle::mean     1.749220                       # Number of insts issued each cycle
system.switch_cpus1.iq.issued_per_cycle::stdev     1.885909                       # Number of insts issued each cycle
system.switch_cpus1.iq.issued_per_cycle::underflows            0      0.00%      0.00% # Number of insts issued each cycle
system.switch_cpus1.iq.issued_per_cycle::0     27268478     35.18%     35.18% # Number of insts issued each cycle
system.switch_cpus1.iq.issued_per_cycle::1     16561382     21.37%     56.55% # Number of insts issued each cycle
system.switch_cpus1.iq.issued_per_cycle::2     10856480     14.01%     70.56% # Number of insts issued each cycle
system.switch_cpus1.iq.issued_per_cycle::3      8029115     10.36%     80.92% # Number of insts issued each cycle
system.switch_cpus1.iq.issued_per_cycle::4      6910097      8.92%     89.83% # Number of insts issued each cycle
system.switch_cpus1.iq.issued_per_cycle::5      3589272      4.63%     94.47% # Number of insts issued each cycle
system.switch_cpus1.iq.issued_per_cycle::6      3057332      3.94%     98.41% # Number of insts issued each cycle
system.switch_cpus1.iq.issued_per_cycle::7       577494      0.75%     99.16% # Number of insts issued each cycle
system.switch_cpus1.iq.issued_per_cycle::8       654644      0.84%    100.00% # Number of insts issued each cycle
system.switch_cpus1.iq.issued_per_cycle::overflows            0      0.00%    100.00% # Number of insts issued each cycle
system.switch_cpus1.iq.issued_per_cycle::min_value            0                       # Number of insts issued each cycle
system.switch_cpus1.iq.issued_per_cycle::max_value            8                       # Number of insts issued each cycle
system.switch_cpus1.iq.issued_per_cycle::total     77504294                       # Number of insts issued each cycle
system.switch_cpus1.iq.fu_full::No_OpClass            0      0.00%      0.00% # attempts to use FU when none available
system.switch_cpus1.iq.fu_full::IntAlu         792621     71.05%     71.05% # attempts to use FU when none available
system.switch_cpus1.iq.fu_full::IntMult             3      0.00%     71.05% # attempts to use FU when none available
system.switch_cpus1.iq.fu_full::IntDiv              0      0.00%     71.05% # attempts to use FU when none available
system.switch_cpus1.iq.fu_full::FloatAdd            0      0.00%     71.05% # attempts to use FU when none available
system.switch_cpus1.iq.fu_full::FloatCmp            0      0.00%     71.05% # attempts to use FU when none available
system.switch_cpus1.iq.fu_full::FloatCvt            0      0.00%     71.05% # attempts to use FU when none available
system.switch_cpus1.iq.fu_full::FloatMult            0      0.00%     71.05% # attempts to use FU when none available
system.switch_cpus1.iq.fu_full::FloatDiv            0      0.00%     71.05% # attempts to use FU when none available
system.switch_cpus1.iq.fu_full::FloatSqrt            0      0.00%     71.05% # attempts to use FU when none available
system.switch_cpus1.iq.fu_full::SimdAdd             0      0.00%     71.05% # attempts to use FU when none available
system.switch_cpus1.iq.fu_full::SimdAddAcc            0      0.00%     71.05% # attempts to use FU when none available
system.switch_cpus1.iq.fu_full::SimdAlu             0      0.00%     71.05% # attempts to use FU when none available
system.switch_cpus1.iq.fu_full::SimdCmp             0      0.00%     71.05% # attempts to use FU when none available
system.switch_cpus1.iq.fu_full::SimdCvt             0      0.00%     71.05% # attempts to use FU when none available
system.switch_cpus1.iq.fu_full::SimdMisc            0      0.00%     71.05% # attempts to use FU when none available
system.switch_cpus1.iq.fu_full::SimdMult            0      0.00%     71.05% # attempts to use FU when none available
system.switch_cpus1.iq.fu_full::SimdMultAcc            0      0.00%     71.05% # attempts to use FU when none available
system.switch_cpus1.iq.fu_full::SimdShift            0      0.00%     71.05% # attempts to use FU when none available
system.switch_cpus1.iq.fu_full::SimdShiftAcc            0      0.00%     71.05% # attempts to use FU when none available
system.switch_cpus1.iq.fu_full::SimdSqrt            0      0.00%     71.05% # attempts to use FU when none available
system.switch_cpus1.iq.fu_full::SimdFloatAdd            0      0.00%     71.05% # attempts to use FU when none available
system.switch_cpus1.iq.fu_full::SimdFloatAlu            0      0.00%     71.05% # attempts to use FU when none available
system.switch_cpus1.iq.fu_full::SimdFloatCmp            0      0.00%     71.05% # attempts to use FU when none available
system.switch_cpus1.iq.fu_full::SimdFloatCvt            0      0.00%     71.05% # attempts to use FU when none available
system.switch_cpus1.iq.fu_full::SimdFloatDiv            0      0.00%     71.05% # attempts to use FU when none available
system.switch_cpus1.iq.fu_full::SimdFloatMisc            0      0.00%     71.05% # attempts to use FU when none available
system.switch_cpus1.iq.fu_full::SimdFloatMult            0      0.00%     71.05% # attempts to use FU when none available
system.switch_cpus1.iq.fu_full::SimdFloatMultAcc            0      0.00%     71.05% # attempts to use FU when none available
system.switch_cpus1.iq.fu_full::SimdFloatSqrt            0      0.00%     71.05% # attempts to use FU when none available
system.switch_cpus1.iq.fu_full::MemRead        162379     14.56%     85.60% # attempts to use FU when none available
system.switch_cpus1.iq.fu_full::MemWrite       160606     14.40%    100.00% # attempts to use FU when none available
system.switch_cpus1.iq.fu_full::IprAccess            0      0.00%    100.00% # attempts to use FU when none available
system.switch_cpus1.iq.fu_full::InstPrefetch            0      0.00%    100.00% # attempts to use FU when none available
system.switch_cpus1.iq.FU_type_0::No_OpClass            0      0.00%      0.00% # Type of FU issued
system.switch_cpus1.iq.FU_type_0::IntAlu    112966125     83.33%     83.33% # Type of FU issued
system.switch_cpus1.iq.FU_type_0::IntMult      1929850      1.42%     84.75% # Type of FU issued
system.switch_cpus1.iq.FU_type_0::IntDiv            0      0.00%     84.75% # Type of FU issued
system.switch_cpus1.iq.FU_type_0::FloatAdd            0      0.00%     84.75% # Type of FU issued
system.switch_cpus1.iq.FU_type_0::FloatCmp            0      0.00%     84.75% # Type of FU issued
system.switch_cpus1.iq.FU_type_0::FloatCvt            0      0.00%     84.75% # Type of FU issued
system.switch_cpus1.iq.FU_type_0::FloatMult            0      0.00%     84.75% # Type of FU issued
system.switch_cpus1.iq.FU_type_0::FloatDiv            0      0.00%     84.75% # Type of FU issued
system.switch_cpus1.iq.FU_type_0::FloatSqrt            0      0.00%     84.75% # Type of FU issued
system.switch_cpus1.iq.FU_type_0::SimdAdd            0      0.00%     84.75% # Type of FU issued
system.switch_cpus1.iq.FU_type_0::SimdAddAcc            0      0.00%     84.75% # Type of FU issued
system.switch_cpus1.iq.FU_type_0::SimdAlu            0      0.00%     84.75% # Type of FU issued
system.switch_cpus1.iq.FU_type_0::SimdCmp            0      0.00%     84.75% # Type of FU issued
system.switch_cpus1.iq.FU_type_0::SimdCvt            0      0.00%     84.75% # Type of FU issued
system.switch_cpus1.iq.FU_type_0::SimdMisc            0      0.00%     84.75% # Type of FU issued
system.switch_cpus1.iq.FU_type_0::SimdMult            0      0.00%     84.75% # Type of FU issued
system.switch_cpus1.iq.FU_type_0::SimdMultAcc            0      0.00%     84.75% # Type of FU issued
system.switch_cpus1.iq.FU_type_0::SimdShift            0      0.00%     84.75% # Type of FU issued
system.switch_cpus1.iq.FU_type_0::SimdShiftAcc            0      0.00%     84.75% # Type of FU issued
system.switch_cpus1.iq.FU_type_0::SimdSqrt            0      0.00%     84.75% # Type of FU issued
system.switch_cpus1.iq.FU_type_0::SimdFloatAdd            0      0.00%     84.75% # Type of FU issued
system.switch_cpus1.iq.FU_type_0::SimdFloatAlu            0      0.00%     84.75% # Type of FU issued
system.switch_cpus1.iq.FU_type_0::SimdFloatCmp            0      0.00%     84.75% # Type of FU issued
system.switch_cpus1.iq.FU_type_0::SimdFloatCvt            0      0.00%     84.75% # Type of FU issued
system.switch_cpus1.iq.FU_type_0::SimdFloatDiv            0      0.00%     84.75% # Type of FU issued
system.switch_cpus1.iq.FU_type_0::SimdFloatMisc        15002      0.01%     84.76% # Type of FU issued
system.switch_cpus1.iq.FU_type_0::SimdFloatMult            0      0.00%     84.76% # Type of FU issued
system.switch_cpus1.iq.FU_type_0::SimdFloatMultAcc            0      0.00%     84.76% # Type of FU issued
system.switch_cpus1.iq.FU_type_0::SimdFloatSqrt            0      0.00%     84.76% # Type of FU issued
system.switch_cpus1.iq.FU_type_0::MemRead     13449379      9.92%     94.68% # Type of FU issued
system.switch_cpus1.iq.FU_type_0::MemWrite      7211681      5.32%    100.00% # Type of FU issued
system.switch_cpus1.iq.FU_type_0::IprAccess            0      0.00%    100.00% # Type of FU issued
system.switch_cpus1.iq.FU_type_0::InstPrefetch            0      0.00%    100.00% # Type of FU issued
system.switch_cpus1.iq.FU_type_0::total     135572037                       # Type of FU issued
system.switch_cpus1.iq.rate                  1.697903                       # Inst issue rate
system.switch_cpus1.iq.fu_busy_cnt            1115609                       # FU busy when requested
system.switch_cpus1.iq.fu_busy_rate          0.008229                       # FU busy rate (busy events/executed inst)
system.switch_cpus1.iq.int_inst_queue_reads    350027056                       # Number of integer instruction queue reads
system.switch_cpus1.iq.int_inst_queue_writes    229614558                       # Number of integer instruction queue writes
system.switch_cpus1.iq.int_inst_queue_wakeup_accesses    132125810                       # Number of integer instruction queue wakeup accesses
system.switch_cpus1.iq.fp_inst_queue_reads            0                       # Number of floating instruction queue reads
system.switch_cpus1.iq.fp_inst_queue_writes            0                       # Number of floating instruction queue writes
system.switch_cpus1.iq.fp_inst_queue_wakeup_accesses            0                       # Number of floating instruction queue wakeup accesses
system.switch_cpus1.iq.int_alu_accesses     136687646                       # Number of integer alu accesses
system.switch_cpus1.iq.fp_alu_accesses              0                       # Number of floating point alu accesses
system.switch_cpus1.iew.lsq.thread0.forwLoads       509297                       # Number of loads that had data forwarded from stores
system.switch_cpus1.iew.lsq.thread0.invAddrLoads            0                       # Number of loads ignored due to an invalid address
system.switch_cpus1.iew.lsq.thread0.squashedLoads      6626693                       # Number of loads squashed
system.switch_cpus1.iew.lsq.thread0.ignoredResponses         2642                       # Number of memory responses ignored because the instruction is squashed
system.switch_cpus1.iew.lsq.thread0.memOrderViolation          584                       # Number of memory ordering violations
system.switch_cpus1.iew.lsq.thread0.squashedStores      2196845                       # Number of stores squashed
system.switch_cpus1.iew.lsq.thread0.invAddrSwpfs            0                       # Number of software prefetches ignored due to an invalid address
system.switch_cpus1.iew.lsq.thread0.blockedLoads            0                       # Number of blocked loads due to partial load-store forwarding
system.switch_cpus1.iew.lsq.thread0.rescheduledLoads            0                       # Number of loads that were rescheduled
system.switch_cpus1.iew.lsq.thread0.cacheBlocked            0                       # Number of times an access to memory failed due to the cache being blocked
system.switch_cpus1.iew.iewIdleCycles               0                       # Number of cycles IEW is idle
system.switch_cpus1.iew.iewSquashCycles       8331303                       # Number of cycles IEW is squashing
system.switch_cpus1.iew.iewBlockCycles         520844                       # Number of cycles IEW is blocking
system.switch_cpus1.iew.iewUnblockCycles        73043                       # Number of cycles IEW is unblocking
system.switch_cpus1.iew.iewDispatchedInsts    170680178                       # Number of instructions dispatched to IQ
system.switch_cpus1.iew.iewDispSquashedInsts       373443                       # Number of squashed instructions skipped by dispatch
system.switch_cpus1.iew.iewDispLoadInsts     16820454                       # Number of dispatched load instructions
system.switch_cpus1.iew.iewDispStoreInsts      8571682                       # Number of dispatched store instructions
system.switch_cpus1.iew.iewDispNonSpecInsts        20896                       # Number of dispatched non-speculative instructions
system.switch_cpus1.iew.iewIQFullEvents         65603                       # Number of times the IQ has become full, causing a stall
system.switch_cpus1.iew.iewLSQFullEvents            0                       # Number of times the LSQ has become full, causing a stall
system.switch_cpus1.iew.memOrderViolationEvents          584                       # Number of memory order violations
system.switch_cpus1.iew.predictedTakenIncorrect      1146067                       # Number of branches that were predicted taken incorrectly
system.switch_cpus1.iew.predictedNotTakenIncorrect      1084281                       # Number of branches that were predicted not taken incorrectly
system.switch_cpus1.iew.branchMispredicts      2230348                       # Number of branch mispredicts detected at execute
system.switch_cpus1.iew.iewExecutedInsts    133423068                       # Number of executed instructions
system.switch_cpus1.iew.iewExecLoadInsts     12626585                       # Number of load instructions executed
system.switch_cpus1.iew.iewExecSquashedInsts      2148966                       # Number of squashed instructions skipped in execute
system.switch_cpus1.iew.exec_swp                    0                       # number of swp insts executed
system.switch_cpus1.iew.exec_nop                    1                       # number of nop insts executed
system.switch_cpus1.iew.exec_refs            19647990                       # number of memory reference insts executed
system.switch_cpus1.iew.exec_branches        18829592                       # Number of branches executed
system.switch_cpus1.iew.exec_stores           7021405                       # Number of stores executed
system.switch_cpus1.iew.exec_rate            1.670989                       # Inst execution rate
system.switch_cpus1.iew.wb_sent             132213890                       # cumulative count of insts sent to commit
system.switch_cpus1.iew.wb_count            132125810                       # cumulative count of insts written-back
system.switch_cpus1.iew.wb_producers         86106965                       # num instructions producing a value
system.switch_cpus1.iew.wb_consumers        243066164                       # num instructions consuming a value
system.switch_cpus1.iew.wb_penalized                0                       # number of instrctions required to write to 'other' IQ
system.switch_cpus1.iew.wb_rate              1.654742                       # insts written-back per cycle
system.switch_cpus1.iew.wb_fanout            0.354253                       # average fanout of values written-back
system.switch_cpus1.iew.wb_penalized_rate            0                       # fraction of instructions written-back that wrote to 'other' IQ
system.switch_cpus1.commit.commitCommittedInsts     90747032                       # The number of committed instructions
system.switch_cpus1.commit.commitCommittedOps    111444429                       # The number of committed instructions
system.switch_cpus1.commit.commitSquashedInsts     59236337                       # The number of squashed insts skipped by commit
system.switch_cpus1.commit.commitNonSpecStalls        30004                       # The number of times commit has been forced to stall to communicate backwards
system.switch_cpus1.commit.branchMispredicts      1928174                       # The number of times a branch was mispredicted
[...]
system.cpu3.icache.ReadReq_avg_miss_latency::total 151632.894737                       # average ReadReq miss latency
system.cpu3.icache.demand_avg_miss_latency::switch_cpus3.inst 151632.894737                       # average overall miss latency
system.cpu3.icache.demand_avg_miss_latency::total 151632.894737                       # average overall miss latency
system.cpu3.icache.overall_avg_miss_latency::switch_cpus3.inst 151632.894737                       # average overall miss latency
system.cpu3.icache.overall_avg_miss_latency::total 151632.894737                       # average overall miss latency
system.cpu3.icache.blocked_cycles::no_mshrs            0                       # number of cycles access was blocked
system.cpu3.icache.blocked_cycles::no_targets            0                       # number of cycles access was blocked
system.cpu3.icache.blocked::no_mshrs                0                       # number of cycles access was blocked
system.cpu3.icache.blocked::no_targets              0                       # number of cycles access was blocked
system.cpu3.icache.avg_blocked_cycles::no_mshrs          nan                       # average number of cycles each access was blocked
system.cpu3.icache.avg_blocked_cycles::no_targets          nan                       # average number of cycles each access was blocked
system.cpu3.icache.fast_writes                      0                       # number of fast writes performed
system.cpu3.icache.cache_copies                     0                       # number of cache copies performed
system.cpu3.icache.ReadReq_mshr_hits::switch_cpus3.inst            6                       # number of ReadReq MSHR hits
system.cpu3.icache.ReadReq_mshr_hits::total            6                       # number of ReadReq MSHR hits
system.cpu3.icache.demand_mshr_hits::switch_cpus3.inst            6                       # number of demand (read+write) MSHR hits
system.cpu3.icache.demand_mshr_hits::total            6                       # number of demand (read+write) MSHR hits
system.cpu3.icache.overall_mshr_hits::switch_cpus3.inst            6                       # number of overall MSHR hits
system.cpu3.icache.overall_mshr_hits::total            6                       # number of overall MSHR hits
system.cpu3.icache.ReadReq_mshr_misses::switch_cpus3.inst           13                       # number of ReadReq MSHR misses
system.cpu3.icache.ReadReq_mshr_misses::total           13                       # number of ReadReq MSHR misses
system.cpu3.icache.demand_mshr_misses::switch_cpus3.inst           13                       # number of demand (read+write) MSHR misses
system.cpu3.icache.demand_mshr_misses::total           13                       # number of demand (read+write) MSHR misses
system.cpu3.icache.overall_mshr_misses::switch_cpus3.inst           13                       # number of overall MSHR misses
system.cpu3.icache.overall_mshr_misses::total           13                       # number of overall MSHR misses
system.cpu3.icache.ReadReq_mshr_miss_latency::switch_cpus3.inst      1866092                       # number of ReadReq MSHR miss cycles
system.cpu3.icache.ReadReq_mshr_miss_latency::total      1866092                       # number of ReadReq MSHR miss cycles
system.cpu3.icache.demand_mshr_miss_latency::switch_cpus3.inst      1866092                       # number of demand (read+write) MSHR miss cycles
system.cpu3.icache.demand_mshr_miss_latency::total      1866092                       # number of demand (read+write) MSHR miss cycles
system.cpu3.icache.overall_mshr_miss_latency::switch_cpus3.inst      1866092                       # number of overall MSHR miss cycles
system.cpu3.icache.overall_mshr_miss_latency::total      1866092                       # number of overall MSHR miss cycles
system.cpu3.icache.ReadReq_mshr_miss_rate::switch_cpus3.inst     0.000001                       # mshr miss rate for ReadReq accesses
system.cpu3.icache.ReadReq_mshr_miss_rate::total     0.000001                       # mshr miss rate for ReadReq accesses
system.cpu3.icache.demand_mshr_miss_rate::switch_cpus3.inst     0.000001                       # mshr miss rate for demand accesses
system.cpu3.icache.demand_mshr_miss_rate::total     0.000001                       # mshr miss rate for demand accesses
system.cpu3.icache.overall_mshr_miss_rate::switch_cpus3.inst     0.000001                       # mshr miss rate for overall accesses
system.cpu3.icache.overall_mshr_miss_rate::total     0.000001                       # mshr miss rate for overall accesses
system.cpu3.icache.ReadReq_avg_mshr_miss_latency::switch_cpus3.inst 143545.538462                       # average ReadReq mshr miss latency
system.cpu3.icache.ReadReq_avg_mshr_miss_latency::total 143545.538462                       # average ReadReq mshr miss latency
system.cpu3.icache.demand_avg_mshr_miss_latency::switch_cpus3.inst 143545.538462                       # average overall mshr miss latency
system.cpu3.icache.demand_avg_mshr_miss_latency::total 143545.538462                       # average overall mshr miss latency
system.cpu3.icache.overall_avg_mshr_miss_latency::switch_cpus3.inst 143545.538462                       # average overall mshr miss latency
system.cpu3.icache.overall_avg_mshr_miss_latency::total 143545.538462                       # average overall mshr miss latency
system.cpu3.icache.no_allocate_misses               0                       # Number of misses that were no-allocate
system.cpu3.dcache.replacements                 48826                       # number of replacements
system.cpu3.dcache.tagsinuse                      256                       # Cycle average of tags in use
system.cpu3.dcache.total_refs               185661925                       # Total number of references to valid blocks.
system.cpu3.dcache.sampled_refs                 49082                       # Sample count of references to valid blocks.
system.cpu3.dcache.avg_refs               3782.688664                       # Average number of references to valid blocks.
system.cpu3.dcache.warmup_cycle                     0                       # Cycle when the warmup percentage was hit.
system.cpu3.dcache.occ_blocks::switch_cpus3.data   233.580142                       # Average occupied blocks per requestor
system.cpu3.dcache.occ_blocks::cpu3.data    22.419858                       # Average occupied blocks per requestor
system.cpu3.dcache.occ_percent::switch_cpus3.data     0.912422                       # Average percentage of cache occupancy
system.cpu3.dcache.occ_percent::cpu3.data     0.087578                       # Average percentage of cache occupancy
system.cpu3.dcache.occ_percent::total               1                       # Average percentage of cache occupancy
system.cpu3.dcache.ReadReq_hits::switch_cpus3.data      9799585                       # number of ReadReq hits
system.cpu3.dcache.ReadReq_hits::total        9799585                       # number of ReadReq hits
system.cpu3.dcache.WriteReq_hits::switch_cpus3.data      6748897                       # number of WriteReq hits
system.cpu3.dcache.WriteReq_hits::total       6748897                       # number of WriteReq hits
system.cpu3.dcache.LoadLockedReq_hits::switch_cpus3.data        16602                       # number of LoadLockedReq hits
system.cpu3.dcache.LoadLockedReq_hits::total        16602                       # number of LoadLockedReq hits
system.cpu3.dcache.StoreCondReq_hits::switch_cpus3.data        15662                       # number of StoreCondReq hits
system.cpu3.dcache.StoreCondReq_hits::total        15662                       # number of StoreCondReq hits
system.cpu3.dcache.demand_hits::switch_cpus3.data     16548482                       # number of demand (read+write) hits
system.cpu3.dcache.demand_hits::total        16548482                       # number of demand (read+write) hits
system.cpu3.dcache.overall_hits::switch_cpus3.data     16548482                       # number of overall hits
system.cpu3.dcache.overall_hits::total       16548482                       # number of overall hits
system.cpu3.dcache.ReadReq_misses::switch_cpus3.data       123435                       # number of ReadReq misses
system.cpu3.dcache.ReadReq_misses::total       123435                       # number of ReadReq misses
system.cpu3.dcache.WriteReq_misses::switch_cpus3.data         3828                       # number of WriteReq misses
system.cpu3.dcache.WriteReq_misses::total         3828                       # number of WriteReq misses
system.cpu3.dcache.demand_misses::switch_cpus3.data       127263                       # number of demand (read+write) misses
system.cpu3.dcache.demand_misses::total        127263                       # number of demand (read+write) misses
system.cpu3.dcache.overall_misses::switch_cpus3.data       127263                       # number of overall misses
system.cpu3.dcache.overall_misses::total       127263                       # number of overall misses
system.cpu3.dcache.ReadReq_miss_latency::switch_cpus3.data   3905379364                       # number of ReadReq miss cycles
system.cpu3.dcache.ReadReq_miss_latency::total   3905379364                       # number of ReadReq miss cycles
system.cpu3.dcache.WriteReq_miss_latency::switch_cpus3.data    585836913                       # number of WriteReq miss cycles
system.cpu3.dcache.WriteReq_miss_latency::total    585836913                       # number of WriteReq miss cycles
system.cpu3.dcache.demand_miss_latency::switch_cpus3.data   4491216277                       # number of demand (read+write) miss cycles
system.cpu3.dcache.demand_miss_latency::total   4491216277                       # number of demand (read+write) miss cycles
system.cpu3.dcache.overall_miss_latency::switch_cpus3.data   4491216277                       # number of overall miss cycles
system.cpu3.dcache.overall_miss_latency::total   4491216277                       # number of overall miss cycles
system.cpu3.dcache.ReadReq_accesses::switch_cpus3.data      9923020                       # number of ReadReq accesses(hits+misses)
system.cpu3.dcache.ReadReq_accesses::total      9923020                       # number of ReadReq accesses(hits+misses)
system.cpu3.dcache.WriteReq_accesses::switch_cpus3.data      6752725                       # number of WriteReq accesses(hits+misses)
system.cpu3.dcache.WriteReq_accesses::total      6752725                       # number of WriteReq accesses(hits+misses)
system.cpu3.dcache.LoadLockedReq_accesses::switch_cpus3.data        16602                       # number of LoadLockedReq accesses(hits+misses)
system.cpu3.dcache.LoadLockedReq_accesses::total        16602                       # number of LoadLockedReq accesses(hits+misses)
system.cpu3.dcache.StoreCondReq_accesses::switch_cpus3.data        15662                       # number of StoreCondReq accesses(hits+misses)
system.cpu3.dcache.StoreCondReq_accesses::total        15662                       # number of StoreCondReq accesses(hits+misses)
system.cpu3.dcache.demand_accesses::switch_cpus3.data     16675745                       # number of demand (read+write) accesses
system.cpu3.dcache.demand_accesses::total     16675745                       # number of demand (read+write) accesses
system.cpu3.dcache.overall_accesses::switch_cpus3.data     16675745                       # number of overall (read+write) accesses
system.cpu3.dcache.overall_accesses::total     16675745                       # number of overall (read+write) accesses
system.cpu3.dcache.ReadReq_miss_rate::switch_cpus3.data     0.012439                       # miss rate for ReadReq accesses
system.cpu3.dcache.ReadReq_miss_rate::total     0.012439                       # miss rate for ReadReq accesses
system.cpu3.dcache.WriteReq_miss_rate::switch_cpus3.data     0.000567                       # miss rate for WriteReq accesses
system.cpu3.dcache.WriteReq_miss_rate::total     0.000567                       # miss rate for WriteReq accesses
system.cpu3.dcache.demand_miss_rate::switch_cpus3.data     0.007632                       # miss rate for demand accesses
system.cpu3.dcache.demand_miss_rate::total     0.007632                       # miss rate for demand accesses
system.cpu3.dcache.overall_miss_rate::switch_cpus3.data     0.007632                       # miss rate for overall accesses
system.cpu3.dcache.overall_miss_rate::total     0.007632                       # miss rate for overall accesses
system.cpu3.dcache.ReadReq_avg_miss_latency::switch_cpus3.data 31639.157160                       # average ReadReq miss latency
system.cpu3.dcache.ReadReq_avg_miss_latency::total 31639.157160                       # average ReadReq miss latency
system.cpu3.dcache.WriteReq_avg_miss_latency::switch_cpus3.data 153039.945925                       # average WriteReq miss latency
system.cpu3.dcache.WriteReq_avg_miss_latency::total 153039.945925                       # average WriteReq miss latency
system.cpu3.dcache.demand_avg_miss_latency::switch_cpus3.data 35290.825118                       # average overall miss latency
system.cpu3.dcache.demand_avg_miss_latency::total 35290.825118                       # average overall miss latency
system.cpu3.dcache.overall_avg_miss_latency::switch_cpus3.data 35290.825118                       # average overall miss latency
system.cpu3.dcache.overall_avg_miss_latency::total 35290.825118                       # average overall miss latency
system.cpu3.dcache.blocked_cycles::no_mshrs            0                       # number of cycles access was blocked
system.cpu3.dcache.blocked_cycles::no_targets      2132196                       # number of cycles access was blocked
system.cpu3.dcache.blocked::no_mshrs                0                       # number of cycles access was blocked
system.cpu3.dcache.blocked::no_targets             18                       # number of cycles access was blocked
system.cpu3.dcache.avg_blocked_cycles::no_mshrs          nan                       # average number of cycles each access was blocked
system.cpu3.dcache.avg_blocked_cycles::no_targets 118455.333333                       # average number of cycles each access was blocked
system.cpu3.dcache.fast_writes                      0                       # number of fast writes performed
system.cpu3.dcache.cache_copies                     0                       # number of cache copies performed
system.cpu3.dcache.writebacks::writebacks        26246                       # number of writebacks
system.cpu3.dcache.writebacks::total            26246                       # number of writebacks
system.cpu3.dcache.ReadReq_mshr_hits::switch_cpus3.data        74612                       # number of ReadReq MSHR hits
system.cpu3.dcache.ReadReq_mshr_hits::total        74612                       # number of ReadReq MSHR hits
system.cpu3.dcache.WriteReq_mshr_hits::switch_cpus3.data         3825                       # number of WriteReq MSHR hits
system.cpu3.dcache.WriteReq_mshr_hits::total         3825                       # number of WriteReq MSHR hits
system.cpu3.dcache.demand_mshr_hits::switch_cpus3.data        78437                       # number of demand (read+write) MSHR hits
system.cpu3.dcache.demand_mshr_hits::total        78437                       # number of demand (read+write) MSHR hits
system.cpu3.dcache.overall_mshr_hits::switch_cpus3.data        78437                       # number of overall MSHR hits
system.cpu3.dcache.overall_mshr_hits::total        78437                       # number of overall MSHR hits
system.cpu3.dcache.ReadReq_mshr_misses::switch_cpus3.data        48823                       # number of ReadReq MSHR misses
system.cpu3.dcache.ReadReq_mshr_misses::total        48823                       # number of ReadReq MSHR misses
system.cpu3.dcache.WriteReq_mshr_misses::switch_cpus3.data            3                       # number of WriteReq MSHR misses
system.cpu3.dcache.WriteReq_mshr_misses::total            3                       # number of WriteReq MSHR misses
system.cpu3.dcache.demand_mshr_misses::switch_cpus3.data        48826                       # number of demand (read+write) MSHR misses
system.cpu3.dcache.demand_mshr_misses::total        48826                       # number of demand (read+write) MSHR misses
system.cpu3.dcache.overall_mshr_misses::switch_cpus3.data        48826                       # number of overall MSHR misses
system.cpu3.dcache.overall_mshr_misses::total        48826                       # number of overall MSHR misses
system.cpu3.dcache.ReadReq_mshr_miss_latency::switch_cpus3.data    842944341                       # number of ReadReq MSHR miss cycles
system.cpu3.dcache.ReadReq_mshr_miss_latency::total    842944341                       # number of ReadReq MSHR miss cycles
system.cpu3.dcache.WriteReq_mshr_miss_latency::switch_cpus3.data       403293                       # number of WriteReq MSHR miss cycles
system.cpu3.dcache.WriteReq_mshr_miss_latency::total       403293                       # number of WriteReq MSHR miss cycles
system.cpu3.dcache.demand_mshr_miss_latency::switch_cpus3.data    843347634                       # number of demand (read+write) MSHR miss cycles
system.cpu3.dcache.demand_mshr_miss_latency::total    843347634                       # number of demand (read+write) MSHR miss cycles
system.cpu3.dcache.overall_mshr_miss_latency::switch_cpus3.data    843347634                       # number of overall MSHR miss cycles
system.cpu3.dcache.overall_mshr_miss_latency::total    843347634                       # number of overall MSHR miss cycles
system.cpu3.dcache.ReadReq_mshr_miss_rate::switch_cpus3.data     0.004920                       # mshr miss rate for ReadReq accesses
system.cpu3.dcache.ReadReq_mshr_miss_rate::total     0.004920                       # mshr miss rate for ReadReq accesses
system.cpu3.dcache.WriteReq_mshr_miss_rate::switch_cpus3.data     0.000000                       # mshr miss rate for WriteReq accesses
system.cpu3.dcache.WriteReq_mshr_miss_rate::total     0.000000                       # mshr miss rate for WriteReq accesses
system.cpu3.dcache.demand_mshr_miss_rate::switch_cpus3.data     0.002928                       # mshr miss rate for demand accesses
system.cpu3.dcache.demand_mshr_miss_rate::total     0.002928                       # mshr miss rate for demand accesses
system.cpu3.dcache.overall_mshr_miss_rate::switch_cpus3.data     0.002928                       # mshr miss rate for overall accesses
system.cpu3.dcache.overall_mshr_miss_rate::total     0.002928                       # mshr miss rate for overall accesses
system.cpu3.dcache.ReadReq_avg_mshr_miss_latency::switch_cpus3.data 17265.312271                       # average ReadReq mshr miss latency
system.cpu3.dcache.ReadReq_avg_mshr_miss_latency::total 17265.312271                       # average ReadReq mshr miss latency
system.cpu3.dcache.WriteReq_avg_mshr_miss_latency::switch_cpus3.data       134431                       # average WriteReq mshr miss latency
system.cpu3.dcache.WriteReq_avg_mshr_miss_latency::total       134431                       # average WriteReq mshr miss latency
system.cpu3.dcache.demand_avg_mshr_miss_latency::switch_cpus3.data 17272.511244                       # average overall mshr miss latency
system.cpu3.dcache.demand_avg_mshr_miss_latency::total 17272.511244                       # average overall mshr miss latency
system.cpu3.dcache.overall_avg_mshr_miss_latency::switch_cpus3.data 17272.511244                       # average overall mshr miss latency
system.cpu3.dcache.overall_avg_mshr_miss_latency::total 17272.511244                       # average overall mshr miss latency
system.cpu3.dcache.no_allocate_misses               0                       # Number of misses that were no-allocate

---------- End Simulation Statistics   ----------
