
---------- Begin Simulation Statistics ----------
sim_seconds                                  0.003329                       # Number of seconds simulated
sim_ticks                                  3328626606                       # Number of ticks simulated
final_tick                               574831549725                       # Number of ticks from beginning of simulation (restored from checkpoints and never reset)
sim_freq                                 1000000000000                       # Frequency of simulated ticks
host_inst_rate                                 299090                       # Simulator instruction rate (inst/s)
host_op_rate                                   384713                       # Simulator op (including micro ops) rate (op/s)
host_tick_rate                                 231667                       # Simulator tick rate (ticks/s)
host_mem_usage                               16918792                       # Number of bytes of host memory used
host_seconds                                 14368.15                       # Real time elapsed on the host
sim_insts                                  4297370396                       # Number of instructions simulated
sim_ops                                    5527618659                       # Number of ops (including micro ops) simulated
system.physmem.bytes_read::switch_cpus0.inst         1792                       # Number of bytes read from this memory
system.physmem.bytes_read::switch_cpus0.data       252160                       # Number of bytes read from this memory
system.physmem.bytes_read::switch_cpus1.inst         1664                       # Number of bytes read from this memory
system.physmem.bytes_read::switch_cpus1.data       347136                       # Number of bytes read from this memory
system.physmem.bytes_read::switch_cpus2.inst         1792                       # Number of bytes read from this memory
system.physmem.bytes_read::switch_cpus2.data       158208                       # Number of bytes read from this memory
system.physmem.bytes_read::switch_cpus3.inst         2048                       # Number of bytes read from this memory
system.physmem.bytes_read::switch_cpus3.data       118528                       # Number of bytes read from this memory
system.physmem.bytes_read::total               883328                       # Number of bytes read from this memory
system.physmem.bytes_inst_read::switch_cpus0.inst         1792                       # Number of instructions bytes read from this memory
system.physmem.bytes_inst_read::switch_cpus1.inst         1664                       # Number of instructions bytes read from this memory
system.physmem.bytes_inst_read::switch_cpus2.inst         1792                       # Number of instructions bytes read from this memory
system.physmem.bytes_inst_read::switch_cpus3.inst         2048                       # Number of instructions bytes read from this memory
system.physmem.bytes_inst_read::total            7296                       # Number of instructions bytes read from this memory
system.physmem.bytes_written::writebacks       228224                       # Number of bytes written to this memory
system.physmem.bytes_written::total            228224                       # Number of bytes written to this memory
system.physmem.num_reads::switch_cpus0.inst           14                       # Number of read requests responded to by this memory
system.physmem.num_reads::switch_cpus0.data         1970                       # Number of read requests responded to by this memory
system.physmem.num_reads::switch_cpus1.inst           13                       # Number of read requests responded to by this memory
system.physmem.num_reads::switch_cpus1.data         2712                       # Number of read requests responded to by this memory
system.physmem.num_reads::switch_cpus2.inst           14                       # Number of read requests responded to by this memory
system.physmem.num_reads::switch_cpus2.data         1236                       # Number of read requests responded to by this memory
system.physmem.num_reads::switch_cpus3.inst           16                       # Number of read requests responded to by this memory
system.physmem.num_reads::switch_cpus3.data          926                       # Number of read requests responded to by this memory
system.physmem.num_reads::total                  6901                       # Number of read requests responded to by this memory
system.physmem.num_writes::writebacks            1783                       # Number of write requests responded to by this memory
system.physmem.num_writes::functional               0                       # Number of write requests responded to by this memory
system.physmem.num_writes::interrupt                0                       # Number of write requests responded to by this memory
system.physmem.num_writes::switch_cpus0.dtb.walker            0                       # Number of write requests responded to by this memory
system.physmem.num_writes::switch_cpus0.itb.walker            0                       # Number of write requests responded to by this memory
system.physmem.num_writes::switch_cpus0.inst            0                       # Number of write requests responded to by this memory
system.physmem.num_writes::switch_cpus0.data            0                       # Number of write requests responded to by this memory
system.physmem.num_writes::switch_cpus1.dtb.walker            0                       # Number of write requests responded to by this memory
system.physmem.num_writes::switch_cpus1.itb.walker            0                       # Number of write requests responded to by this memory
system.physmem.num_writes::switch_cpus1.inst            0                       # Number of write requests responded to by this memory
system.physmem.num_writes::switch_cpus1.data            0                       # Number of write requests responded to by this memory
system.physmem.num_writes::switch_cpus2.dtb.walker            0                       # Number of write requests responded to by this memory
system.physmem.num_writes::switch_cpus2.itb.walker            0                       # Number of write requests responded to by this memory
system.physmem.num_writes::switch_cpus2.inst            0                       # Number of write requests responded to by this memory
system.physmem.num_writes::switch_cpus2.data            0                       # Number of write requests responded to by this memory
system.physmem.num_writes::switch_cpus3.dtb.walker            0                       # Number of write requests responded to by this memory
system.physmem.num_writes::switch_cpus3.itb.walker            0                       # Number of write requests responded to by this memory
system.physmem.num_writes::switch_cpus3.inst            0                       # Number of write requests responded to by this memory
system.physmem.num_writes::switch_cpus3.data            0                       # Number of write requests responded to by this memory
system.physmem.num_writes::cpu0.dtb.walker            0                       # Number of write requests responded to by this memory
system.physmem.num_writes::cpu0.itb.walker            0                       # Number of write requests responded to by this memory
system.physmem.num_writes::cpu0.inst                0                       # Number of write requests responded to by this memory
system.physmem.num_writes::cpu0.data                0                       # Number of write requests responded to by this memory
system.physmem.num_writes::cpu1.dtb.walker            0                       # Number of write requests responded to by this memory
system.physmem.num_writes::cpu1.itb.walker            0                       # Number of write requests responded to by this memory
system.physmem.num_writes::cpu1.inst                0                       # Number of write requests responded to by this memory
system.physmem.num_writes::cpu1.data                0                       # Number of write requests responded to by this memory
system.physmem.num_writes::cpu2.dtb.walker            0                       # Number of write requests responded to by this memory
system.physmem.num_writes::cpu2.itb.walker            0                       # Number of write requests responded to by this memory
system.physmem.num_writes::cpu2.inst                0                       # Number of write requests responded to by this memory
system.physmem.num_writes::cpu2.data                0                       # Number of write requests responded to by this memory
system.physmem.num_writes::cpu3.dtb.walker            0                       # Number of write requests responded to by this memory
system.physmem.num_writes::cpu3.itb.walker            0                       # Number of write requests responded to by this memory
system.physmem.num_writes::cpu3.inst                0                       # Number of write requests responded to by this memory
system.physmem.num_writes::cpu3.data                0                       # Number of write requests responded to by this memory
system.physmem.num_writes::total                 1783                       # Number of write requests responded to by this memory
system.physmem.bw_read::switch_cpus0.inst       538360                       # Total read bandwidth from this memory (bytes/s)
system.physmem.bw_read::switch_cpus0.data     75754967                       # Total read bandwidth from this memory (bytes/s)
system.physmem.bw_read::switch_cpus1.inst       499906                       # Total read bandwidth from this memory (bytes/s)
system.physmem.bw_read::switch_cpus1.data    104288057                       # Total read bandwidth from this memory (bytes/s)
system.physmem.bw_read::switch_cpus2.inst       538360                       # Total read bandwidth from this memory (bytes/s)
system.physmem.bw_read::switch_cpus2.data     47529513                       # Total read bandwidth from this memory (bytes/s)
system.physmem.bw_read::switch_cpus3.inst       615269                       # Total read bandwidth from this memory (bytes/s)
system.physmem.bw_read::switch_cpus3.data     35608680                       # Total read bandwidth from this memory (bytes/s)
system.physmem.bw_read::total               265373112                       # Total read bandwidth from this memory (bytes/s)
system.physmem.bw_inst_read::switch_cpus0.inst       538360                       # Instruction read bandwidth from this memory (bytes/s)
system.physmem.bw_inst_read::switch_cpus1.inst       499906                       # Instruction read bandwidth from this memory (bytes/s)
system.physmem.bw_inst_read::switch_cpus2.inst       538360                       # Instruction read bandwidth from this memory (bytes/s)
system.physmem.bw_inst_read::switch_cpus3.inst       615269                       # Instruction read bandwidth from this memory (bytes/s)
system.physmem.bw_inst_read::total            2191895                       # Instruction read bandwidth from this memory (bytes/s)
system.physmem.bw_write::writebacks          68564014                       # Write bandwidth from this memory (bytes/s)
system.physmem.bw_write::total               68564014                       # Write bandwidth from this memory (bytes/s)
system.physmem.bw_total::writebacks          68564014                       # Total bandwidth to/from this memory (bytes/s)
system.physmem.bw_total::switch_cpus0.inst       538360                       # Total bandwidth to/from this memory (bytes/s)
system.physmem.bw_total::switch_cpus0.data     75754967                       # Total bandwidth to/from this memory (bytes/s)
system.physmem.bw_total::switch_cpus1.inst       499906                       # Total bandwidth to/from this memory (bytes/s)
system.physmem.bw_total::switch_cpus1.data    104288057                       # Total bandwidth to/from this memory (bytes/s)
system.physmem.bw_total::switch_cpus2.inst       538360                       # Total bandwidth to/from this memory (bytes/s)
system.physmem.bw_total::switch_cpus2.data     47529513                       # Total bandwidth to/from this memory (bytes/s)
system.physmem.bw_total::switch_cpus3.inst       615269                       # Total bandwidth to/from this memory (bytes/s)
system.physmem.bw_total::switch_cpus3.data     35608680                       # Total bandwidth to/from this memory (bytes/s)
system.physmem.bw_total::total              333937125                       # Total bandwidth to/from this memory (bytes/s)
system.switch_cpus0.dtb.inst_hits                   0                       # ITB inst hits
system.switch_cpus0.dtb.inst_misses                 0                       # ITB inst misses
system.switch_cpus0.dtb.read_hits                   0                       # DTB read hits
system.switch_cpus0.dtb.read_misses                 0                       # DTB read misses
system.switch_cpus0.dtb.write_hits                  0                       # DTB write hits
system.switch_cpus0.dtb.write_misses                0                       # DTB write misses
system.switch_cpus0.dtb.flush_tlb                   0                       # Number of times complete TLB was flushed
system.switch_cpus0.dtb.flush_tlb_mva               0                       # Number of times TLB was flushed by MVA
system.switch_cpus0.dtb.flush_tlb_mva_asid            0                       # Number of times TLB was flushed by MVA & ASID
system.switch_cpus0.dtb.flush_tlb_asid              0                       # Number of times TLB was flushed by ASID
system.switch_cpus0.dtb.flush_entries               0                       # Number of entries that have been flushed from TLB
system.switch_cpus0.dtb.align_faults                0                       # Number of TLB faults due to alignment restrictions
system.switch_cpus0.dtb.prefetch_faults             0                       # Number of TLB faults due to prefetch
system.switch_cpus0.dtb.domain_faults               0                       # Number of TLB faults due to domain restrictions
system.switch_cpus0.dtb.perms_faults                0                       # Number of TLB faults due to permissions restrictions
system.switch_cpus0.dtb.read_accesses               0                       # DTB read accesses
system.switch_cpus0.dtb.write_accesses              0                       # DTB write accesses
system.switch_cpus0.dtb.inst_accesses               0                       # ITB inst accesses
system.switch_cpus0.dtb.hits                        0                       # DTB hits
system.switch_cpus0.dtb.misses                      0                       # DTB misses
system.switch_cpus0.dtb.accesses                    0                       # DTB accesses
system.switch_cpus0.itb.inst_hits                   0                       # ITB inst hits
system.switch_cpus0.itb.inst_misses                 0                       # ITB inst misses
system.switch_cpus0.itb.read_hits                   0                       # DTB read hits
system.switch_cpus0.itb.read_misses                 0                       # DTB read misses
system.switch_cpus0.itb.write_hits                  0                       # DTB write hits
system.switch_cpus0.itb.write_misses                0                       # DTB write misses
system.switch_cpus0.itb.flush_tlb                   0                       # Number of times complete TLB was flushed
system.switch_cpus0.itb.flush_tlb_mva               0                       # Number of times TLB was flushed by MVA
system.switch_cpus0.itb.flush_tlb_mva_asid            0                       # Number of times TLB was flushed by MVA & ASID
system.switch_cpus0.itb.flush_tlb_asid              0                       # Number of times TLB was flushed by ASID
system.switch_cpus0.itb.flush_entries               0                       # Number of entries that have been flushed from TLB
system.switch_cpus0.itb.align_faults                0                       # Number of TLB faults due to alignment restrictions
system.switch_cpus0.itb.prefetch_faults             0                       # Number of TLB faults due to prefetch
system.switch_cpus0.itb.domain_faults               0                       # Number of TLB faults due to domain restrictions
system.switch_cpus0.itb.perms_faults                0                       # Number of TLB faults due to permissions restrictions
system.switch_cpus0.itb.read_accesses               0                       # DTB read accesses
system.switch_cpus0.itb.write_accesses              0                       # DTB write accesses
system.switch_cpus0.itb.inst_accesses               0                       # ITB inst accesses
system.switch_cpus0.itb.hits                        0                       # DTB hits
system.switch_cpus0.itb.misses                      0                       # DTB misses
system.switch_cpus0.itb.accesses                    0                       # DTB accesses
system.cpu0.workload.num_syscalls                   0                       # Number of system calls
system.switch_cpus0.numCycles                 7982319                       # number of cpu cycles simulated
system.switch_cpus0.numWorkItemsStarted             0                       # number of work items this cpu started
system.switch_cpus0.numWorkItemsCompleted            0                       # number of work items this cpu completed
system.switch_cpus0.BPredUnit.lookups         2874796                       # Number of BP lookups
system.switch_cpus0.BPredUnit.condPredicted      2510513                       # Number of conditional branches predicted
system.switch_cpus0.BPredUnit.condIncorrect       185670                       # Number of conditional branches incorrect
system.switch_cpus0.BPredUnit.BTBLookups      1416336                       # Number of BTB lookups
system.switch_cpus0.BPredUnit.BTBHits         1374284                       # Number of BTB hits
system.switch_cpus0.BPredUnit.BTBCorrect            0                       # Number of correct BTB predictions (this stat may not work properly.
system.switch_cpus0.BPredUnit.usedRAS          207581                       # Number of times the RAS was used to get a target.
system.switch_cpus0.BPredUnit.RASInCorrect         5847                       # Number of incorrect RAS predictions.
system.switch_cpus0.fetch.icacheStallCycles      3385577                       # Number of cycles fetch is stalled on an Icache miss
system.switch_cpus0.fetch.Insts              15991995                       # Number of instructions fetch has processed
system.switch_cpus0.fetch.Branches            2874796                       # Number of branches that fetch encountered
system.switch_cpus0.fetch.predictedBranches      1581865                       # Number of branches that fetch has predicted taken
system.switch_cpus0.fetch.Cycles              3291925                       # Number of cycles fetch has run and was not squashing or blocked
system.switch_cpus0.fetch.SquashCycles         910463                       # Number of cycles fetch has spent squashing
system.switch_cpus0.fetch.BlockedCycles        409230                       # Number of cycles fetch has spent blocked
system.switch_cpus0.fetch.PendingTrapStallCycles           18                       # Number of stall cycles due to pending traps
system.switch_cpus0.fetch.CacheLines          1669017                       # Number of cache lines fetched
system.switch_cpus0.fetch.IcacheSquashes        74138                       # Number of outstanding Icache misses that were squashed
system.switch_cpus0.fetch.rateDist::samples      7810499                       # Number of instructions fetched each cycle (Total)
system.switch_cpus0.fetch.rateDist::mean     2.359295                       # Number of instructions fetched each cycle (Total)
system.switch_cpus0.fetch.rateDist::stdev     3.171780                       # Number of instructions fetched each cycle (Total)
system.switch_cpus0.fetch.rateDist::underflows            0      0.00%      0.00% # Number of instructions fetched each cycle (Total)
system.switch_cpus0.fetch.rateDist::0         4518574     57.85%     57.85% # Number of instructions fetched each cycle (Total)
system.switch_cpus0.fetch.rateDist::1          163457      2.09%     59.95% # Number of instructions fetched each cycle (Total)
system.switch_cpus0.fetch.rateDist::2          297616      3.81%     63.76% # Number of instructions fetched each cycle (Total)
system.switch_cpus0.fetch.rateDist::3          280979      3.60%     67.35% # Number of instructions fetched each cycle (Total)
system.switch_cpus0.fetch.rateDist::4          457329      5.86%     73.21% # Number of instructions fetched each cycle (Total)
system.switch_cpus0.fetch.rateDist::5          476759      6.10%     79.31% # Number of instructions fetched each cycle (Total)
system.switch_cpus0.fetch.rateDist::6          113704      1.46%     80.77% # Number of instructions fetched each cycle (Total)
system.switch_cpus0.fetch.rateDist::7           86338      1.11%     81.87% # Number of instructions fetched each cycle (Total)
system.switch_cpus0.fetch.rateDist::8         1415743     18.13%    100.00% # Number of instructions fetched each cycle (Total)
system.switch_cpus0.fetch.rateDist::overflows            0      0.00%    100.00% # Number of instructions fetched each cycle (Total)
system.switch_cpus0.fetch.rateDist::min_value            0                       # Number of instructions fetched each cycle (Total)
system.switch_cpus0.fetch.rateDist::max_value            8                       # Number of instructions fetched each cycle (Total)
system.switch_cpus0.fetch.rateDist::total      7810499                       # Number of instructions fetched each cycle (Total)
system.switch_cpus0.fetch.branchRate         0.360145                       # Number of branch fetches per cycle
system.switch_cpus0.fetch.rate               2.003427                       # Number of inst fetches per cycle
system.switch_cpus0.decode.IdleCycles         3496004                       # Number of cycles decode is idle
system.switch_cpus0.decode.BlockedCycles       395253                       # Number of cycles decode is blocked
system.switch_cpus0.decode.RunCycles          3183428                       # Number of cycles decode is running
system.switch_cpus0.decode.UnblockCycles        12763                       # Number of cycles decode is unblocking
system.switch_cpus0.decode.SquashCycles        723041                       # Number of cycles decode is squashing
system.switch_cpus0.decode.BranchResolved       314419                       # Number of times decode resolved a branch
system.switch_cpus0.decode.BranchMispred          723                       # Number of times decode detected a branch misprediction
system.switch_cpus0.decode.DecodedInsts      17897179                       # Number of instructions handled by decode
system.switch_cpus0.decode.SquashedInsts         1311                       # Number of squashed instructions handled by decode
system.switch_cpus0.rename.SquashCycles        723041                       # Number of cycles rename is squashing
system.switch_cpus0.rename.IdleCycles         3645770                       # Number of cycles rename is idle
system.switch_cpus0.rename.BlockCycles         145660                       # Number of cycles rename is blocking
system.switch_cpus0.rename.serializeStallCycles        44023                       # count of cycles rename stalled for serializing inst
system.switch_cpus0.rename.RunCycles          3045365                       # Number of cycles rename is running
system.switch_cpus0.rename.UnblockCycles       206631                       # Number of cycles rename is unblocking
system.switch_cpus0.rename.RenamedInsts      17414712                       # Number of instructions processed by rename
system.switch_cpus0.rename.ROBFullEvents            4                       # Number of times rename has blocked due to ROB full
system.switch_cpus0.rename.IQFullEvents         68901                       # Number of times rename has blocked due to IQ full
system.switch_cpus0.rename.LSQFullEvents        85720                       # Number of times rename has blocked due to LSQ full
system.switch_cpus0.rename.RenamedOperands     23133924                       # Number of destination operands rename has renamed
system.switch_cpus0.rename.RenameLookups     79283931                       # Number of register rename lookups that rename has made
system.switch_cpus0.rename.int_rename_lookups     79283931                       # Number of integer rename lookups
system.switch_cpus0.rename.CommittedMaps     14913019                       # Number of HB maps that are committed
system.switch_cpus0.rename.UndoneMaps         8220874                       # Number of HB maps that are undone due to squashing
system.switch_cpus0.rename.serializingInsts         2053                       # count of serializing insts renamed
system.switch_cpus0.rename.tempSerializingInsts         1002                       # count of temporary serializing insts renamed
system.switch_cpus0.rename.skidInsts           552934                       # count of insts added to the skid buffer
system.switch_cpus0.memDep0.insertedLoads      2670606                       # Number of loads inserted to the mem dependence unit.
system.switch_cpus0.memDep0.insertedStores       583109                       # Number of stores inserted to the mem dependence unit.
system.switch_cpus0.memDep0.conflictingLoads         9459                       # Number of conflicting loads.
system.switch_cpus0.memDep0.conflictingStores       221676                       # Number of conflicting stores.
system.switch_cpus0.iq.iqInstsAdded          16461696                       # Number of instructions added to the IQ (excludes non-spec)
system.switch_cpus0.iq.iqNonSpecInstsAdded         2002                       # Number of non-speculative instructions added to the IQ
system.switch_cpus0.iq.iqInstsIssued         13847629                       # Number of instructions issued
system.switch_cpus0.iq.iqSquashedInstsIssued        18459                       # Number of squashed instructions issued
system.switch_cpus0.iq.iqSquashedInstsExamined      5029965                       # Number of squashed instructions iterated over during squash; mainly for profiling
system.switch_cpus0.iq.iqSquashedOperandsExamined     13806467                       # Number of squashed operands that are examined and possibly removed from graph
system.switch_cpus0.iq.iqSquashedNonSpecRemoved            2                       # Number of squashed non-spec instructions that were removed
system.switch_cpus0.iq.issued_per_cycle::samples      7810499                       # Number of insts issued each cycle
system.switch_cpus0.iq.issued_per_cycle::mean     1.772951                       # Number of insts issued each cycle
system.switch_cpus0.iq.issued_per_cycle::stdev     1.838262                       # Number of insts issued each cycle
system.switch_cpus0.iq.issued_per_cycle::underflows            0      0.00%      0.00% # Number of insts issued each cycle
system.switch_cpus0.iq.issued_per_cycle::0      2739154     35.07%     35.07% # Number of insts issued each cycle
system.switch_cpus0.iq.issued_per_cycle::1      1444835     18.50%     53.57% # Number of insts issued each cycle
system.switch_cpus0.iq.issued_per_cycle::2      1273665     16.31%     69.88% # Number of insts issued each cycle
system.switch_cpus0.iq.issued_per_cycle::3       772270      9.89%     79.76% # Number of insts issued each cycle
system.switch_cpus0.iq.issued_per_cycle::4       802226     10.27%     90.03% # Number of insts issued each cycle
system.switch_cpus0.iq.issued_per_cycle::5       473101      6.06%     96.09% # Number of insts issued each cycle
system.switch_cpus0.iq.issued_per_cycle::6       210804      2.70%     98.79% # Number of insts issued each cycle
system.switch_cpus0.iq.issued_per_cycle::7        56131      0.72%     99.51% # Number of insts issued each cycle
system.switch_cpus0.iq.issued_per_cycle::8        38313      0.49%    100.00% # Number of insts issued each cycle
system.switch_cpus0.iq.issued_per_cycle::overflows            0      0.00%    100.00% # Number of insts issued each cycle
system.switch_cpus0.iq.issued_per_cycle::min_value            0                       # Number of insts issued each cycle
system.switch_cpus0.iq.issued_per_cycle::max_value            8                       # Number of insts issued each cycle
system.switch_cpus0.iq.issued_per_cycle::total      7810499                       # Number of insts issued each cycle
system.switch_cpus0.iq.fu_full::No_OpClass            0      0.00%      0.00% # attempts to use FU when none available
system.switch_cpus0.iq.fu_full::IntAlu          54736     66.32%     66.32% # attempts to use FU when none available
system.switch_cpus0.iq.fu_full::IntMult             0      0.00%     66.32% # attempts to use FU when none available
system.switch_cpus0.iq.fu_full::IntDiv              0      0.00%     66.32% # attempts to use FU when none available
system.switch_cpus0.iq.fu_full::FloatAdd            0      0.00%     66.32% # attempts to use FU when none available
system.switch_cpus0.iq.fu_full::FloatCmp            0      0.00%     66.32% # attempts to use FU when none available
system.switch_cpus0.iq.fu_full::FloatCvt            0      0.00%     66.32% # attempts to use FU when none available
system.switch_cpus0.iq.fu_full::FloatMult            0      0.00%     66.32% # attempts to use FU when none available
system.switch_cpus0.iq.fu_full::FloatDiv            0      0.00%     66.32% # attempts to use FU when none available
system.switch_cpus0.iq.fu_full::FloatSqrt            0      0.00%     66.32% # attempts to use FU when none available
system.switch_cpus0.iq.fu_full::SimdAdd             0      0.00%     66.32% # attempts to use FU when none available
system.switch_cpus0.iq.fu_full::SimdAddAcc            0      0.00%     66.32% # attempts to use FU when none available
system.switch_cpus0.iq.fu_full::SimdAlu             0      0.00%     66.32% # attempts to use FU when none available
system.switch_cpus0.iq.fu_full::SimdCmp             0      0.00%     66.32% # attempts to use FU when none available
system.switch_cpus0.iq.fu_full::SimdCvt             0      0.00%     66.32% # attempts to use FU when none available
system.switch_cpus0.iq.fu_full::SimdMisc            0      0.00%     66.32% # attempts to use FU when none available
system.switch_cpus0.iq.fu_full::SimdMult            0      0.00%     66.32% # attempts to use FU when none available
system.switch_cpus0.iq.fu_full::SimdMultAcc            0      0.00%     66.32% # attempts to use FU when none available
system.switch_cpus0.iq.fu_full::SimdShift            0      0.00%     66.32% # attempts to use FU when none available
system.switch_cpus0.iq.fu_full::SimdShiftAcc            0      0.00%     66.32% # attempts to use FU when none available
system.switch_cpus0.iq.fu_full::SimdSqrt            0      0.00%     66.32% # attempts to use FU when none available
system.switch_cpus0.iq.fu_full::SimdFloatAdd            0      0.00%     66.32% # attempts to use FU when none available
system.switch_cpus0.iq.fu_full::SimdFloatAlu            0      0.00%     66.32% # attempts to use FU when none available
system.switch_cpus0.iq.fu_full::SimdFloatCmp            0      0.00%     66.32% # attempts to use FU when none available
system.switch_cpus0.iq.fu_full::SimdFloatCvt            0      0.00%     66.32% # attempts to use FU when none available
system.switch_cpus0.iq.fu_full::SimdFloatDiv            0      0.00%     66.32% # attempts to use FU when none available
system.switch_cpus0.iq.fu_full::SimdFloatMisc            0      0.00%     66.32% # attempts to use FU when none available
system.switch_cpus0.iq.fu_full::SimdFloatMult            0      0.00%     66.32% # attempts to use FU when none available
system.switch_cpus0.iq.fu_full::SimdFloatMultAcc            0      0.00%     66.32% # attempts to use FU when none available
system.switch_cpus0.iq.fu_full::SimdFloatSqrt            0      0.00%     66.32% # attempts to use FU when none available
system.switch_cpus0.iq.fu_full::MemRead         17844     21.62%     87.94% # attempts to use FU when none available
system.switch_cpus0.iq.fu_full::MemWrite         9953     12.06%    100.00% # attempts to use FU when none available
system.switch_cpus0.iq.fu_full::IprAccess            0      0.00%    100.00% # attempts to use FU when none available
system.switch_cpus0.iq.fu_full::InstPrefetch            0      0.00%    100.00% # attempts to use FU when none available
system.switch_cpus0.iq.FU_type_0::No_OpClass            0      0.00%      0.00% # Type of FU issued
system.switch_cpus0.iq.FU_type_0::IntAlu     10866995     78.48%     78.48% # Type of FU issued
system.switch_cpus0.iq.FU_type_0::IntMult       109609      0.79%     79.27% # Type of FU issued
system.switch_cpus0.iq.FU_type_0::IntDiv            0      0.00%     79.27% # Type of FU issued
system.switch_cpus0.iq.FU_type_0::FloatAdd            0      0.00%     79.27% # Type of FU issued
system.switch_cpus0.iq.FU_type_0::FloatCmp            0      0.00%     79.27% # Type of FU issued
system.switch_cpus0.iq.FU_type_0::FloatCvt            0      0.00%     79.27% # Type of FU issued
system.switch_cpus0.iq.FU_type_0::FloatMult            0      0.00%     79.27% # Type of FU issued
system.switch_cpus0.iq.FU_type_0::FloatDiv            0      0.00%     79.27% # Type of FU issued
system.switch_cpus0.iq.FU_type_0::FloatSqrt            0      0.00%     79.27% # Type of FU issued
system.switch_cpus0.iq.FU_type_0::SimdAdd            0      0.00%     79.27% # Type of FU issued
system.switch_cpus0.iq.FU_type_0::SimdAddAcc            0      0.00%     79.27% # Type of FU issued
system.switch_cpus0.iq.FU_type_0::SimdAlu            0      0.00%     79.27% # Type of FU issued
system.switch_cpus0.iq.FU_type_0::SimdCmp            0      0.00%     79.27% # Type of FU issued
system.switch_cpus0.iq.FU_type_0::SimdCvt            0      0.00%     79.27% # Type of FU issued
system.switch_cpus0.iq.FU_type_0::SimdMisc            0      0.00%     79.27% # Type of FU issued
system.switch_cpus0.iq.FU_type_0::SimdMult            0      0.00%     79.27% # Type of FU issued
system.switch_cpus0.iq.FU_type_0::SimdMultAcc            0      0.00%     79.27% # Type of FU issued
system.switch_cpus0.iq.FU_type_0::SimdShift            0      0.00%     79.27% # Type of FU issued
system.switch_cpus0.iq.FU_type_0::SimdShiftAcc            0      0.00%     79.27% # Type of FU issued
system.switch_cpus0.iq.FU_type_0::SimdSqrt            0      0.00%     79.27% # Type of FU issued
system.switch_cpus0.iq.FU_type_0::SimdFloatAdd            0      0.00%     79.27% # Type of FU issued
system.switch_cpus0.iq.FU_type_0::SimdFloatAlu            0      0.00%     79.27% # Type of FU issued
system.switch_cpus0.iq.FU_type_0::SimdFloatCmp            0      0.00%     79.27% # Type of FU issued
system.switch_cpus0.iq.FU_type_0::SimdFloatCvt            0      0.00%     79.27% # Type of FU issued
system.switch_cpus0.iq.FU_type_0::SimdFloatDiv            0      0.00%     79.27% # Type of FU issued
system.switch_cpus0.iq.FU_type_0::SimdFloatMisc         1000      0.01%     79.27% # Type of FU issued
system.switch_cpus0.iq.FU_type_0::SimdFloatMult            0      0.00%     79.27% # Type of FU issued
system.switch_cpus0.iq.FU_type_0::SimdFloatMultAcc            0      0.00%     79.27% # Type of FU issued
system.switch_cpus0.iq.FU_type_0::SimdFloatSqrt            0      0.00%     79.27% # Type of FU issued
system.switch_cpus0.iq.FU_type_0::MemRead      2376173     17.16%     96.43% # Type of FU issued
system.switch_cpus0.iq.FU_type_0::MemWrite       493852      3.57%    100.00% # Type of FU issued
system.switch_cpus0.iq.FU_type_0::IprAccess            0      0.00%    100.00% # Type of FU issued
system.switch_cpus0.iq.FU_type_0::InstPrefetch            0      0.00%    100.00% # Type of FU issued
system.switch_cpus0.iq.FU_type_0::total      13847629                       # Type of FU issued
system.switch_cpus0.iq.rate                  1.734788                       # Inst issue rate
system.switch_cpus0.iq.fu_busy_cnt              82533                       # FU busy when requested
system.switch_cpus0.iq.fu_busy_rate          0.005960                       # FU busy rate (busy events/executed inst)
system.switch_cpus0.iq.int_inst_queue_reads     35606748                       # Number of integer instruction queue reads
system.switch_cpus0.iq.int_inst_queue_writes     21493720                       # Number of integer instruction queue writes
system.switch_cpus0.iq.int_inst_queue_wakeup_accesses     13386191                       # Number of integer instruction queue wakeup accesses
system.switch_cpus0.iq.fp_inst_queue_reads            0                       # Number of floating instruction queue reads
system.switch_cpus0.iq.fp_inst_queue_writes            0                       # Number of floating instruction queue writes
system.switch_cpus0.iq.fp_inst_queue_wakeup_accesses            0                       # Number of floating instruction queue wakeup accesses
system.switch_cpus0.iq.int_alu_accesses      13930162                       # Number of integer alu accesses
system.switch_cpus0.iq.fp_alu_accesses              0                       # Number of floating point alu accesses
system.switch_cpus0.iew.lsq.thread0.forwLoads        34325                       # Number of loads that had data forwarded from stores
system.switch_cpus0.iew.lsq.thread0.invAddrLoads            0                       # Number of loads ignored due to an invalid address
system.switch_cpus0.iew.lsq.thread0.squashedLoads       785652                       # Number of loads squashed
system.switch_cpus0.iew.lsq.thread0.ignoredResponses           68                       # Number of memory responses ignored because the instruction is squashed
system.switch_cpus0.iew.lsq.thread0.memOrderViolation           57                       # Number of memory ordering violations
system.switch_cpus0.iew.lsq.thread0.squashedStores       144168                       # Number of stores squashed
system.switch_cpus0.iew.lsq.thread0.invAddrSwpfs            0                       # Number of software prefetches ignored due to an invalid address
system.switch_cpus0.iew.lsq.thread0.blockedLoads            0                       # Number of blocked loads due to partial load-store forwarding
system.switch_cpus0.iew.lsq.thread0.rescheduledLoads            0                       # Number of loads that were rescheduled
system.switch_cpus0.iew.lsq.thread0.cacheBlocked            0                       # Number of times an access to memory failed due to the cache being blocked
system.switch_cpus0.iew.iewIdleCycles               0                       # Number of cycles IEW is idle
system.switch_cpus0.iew.iewSquashCycles        723041                       # Number of cycles IEW is squashing
system.switch_cpus0.iew.iewBlockCycles          82005                       # Number of cycles IEW is blocking
system.switch_cpus0.iew.iewUnblockCycles         6483                       # Number of cycles IEW is unblocking
system.switch_cpus0.iew.iewDispatchedInsts     16463701                       # Number of instructions dispatched to IQ
system.switch_cpus0.iew.iewDispSquashedInsts        19727                       # Number of squashed instructions skipped by dispatch
system.switch_cpus0.iew.iewDispLoadInsts      2670606                       # Number of dispatched load instructions
system.switch_cpus0.iew.iewDispStoreInsts       583109                       # Number of dispatched store instructions
system.switch_cpus0.iew.iewDispNonSpecInsts         1002                       # Number of dispatched non-speculative instructions
system.switch_cpus0.iew.iewIQFullEvents          3205                       # Number of times the IQ has become full, causing a stall
system.switch_cpus0.iew.iewLSQFullEvents           30                       # Number of times the LSQ has become full, causing a stall
system.switch_cpus0.iew.memOrderViolationEvents           57                       # Number of memory order violations
system.switch_cpus0.iew.predictedTakenIncorrect        97858                       # Number of branches that were predicted taken incorrectly
system.switch_cpus0.iew.predictedNotTakenIncorrect       110525                       # Number of branches that were predicted not taken incorrectly
system.switch_cpus0.iew.branchMispredicts       208383                       # Number of branch mispredicts detected at execute
system.switch_cpus0.iew.iewExecutedInsts     13582924                       # Number of executed instructions
system.switch_cpus0.iew.iewExecLoadInsts      2281230                       # Number of load instructions executed
system.switch_cpus0.iew.iewExecSquashedInsts       264704                       # Number of squashed instructions skipped in execute
system.switch_cpus0.iew.exec_swp                    0                       # number of swp insts executed
system.switch_cpus0.iew.exec_nop                    3                       # number of nop insts executed
system.switch_cpus0.iew.exec_refs             2763209                       # number of memory reference insts executed
system.switch_cpus0.iew.exec_branches         2049733                       # Number of branches executed
system.switch_cpus0.iew.exec_stores            481979                       # Number of stores executed
system.switch_cpus0.iew.exec_rate            1.701626                       # Inst execution rate
system.switch_cpus0.iew.wb_sent              13401776                       # cumulative count of insts sent to commit
system.switch_cpus0.iew.wb_count             13386191                       # cumulative count of insts written-back
system.switch_cpus0.iew.wb_producers          8220926                       # num instructions producing a value
system.switch_cpus0.iew.wb_consumers         20107882                       # num instructions consuming a value
system.switch_cpus0.iew.wb_penalized                0                       # number of instrctions required to write to 'other' IQ
system.switch_cpus0.iew.wb_rate              1.676980                       # insts written-back per cycle
system.switch_cpus0.iew.wb_fanout            0.408841                       # average fanout of values written-back
system.switch_cpus0.iew.wb_penalized_rate            0                       # fraction of instructions written-back that wrote to 'other' IQ
system.switch_cpus0.commit.commitCommittedInsts     10000002                       # The number of committed instructions
system.switch_cpus0.commit.commitCommittedOps     11371778                       # The number of committed instructions
system.switch_cpus0.commit.commitSquashedInsts      5091991                       # The number of squashed insts skipped by commit
system.switch_cpus0.commit.commitNonSpecStalls         2000                       # The number of times commit has been forced to stall to communicate backwards
system.switch_cpus0.commit.branchMispredicts       185965                       # The number of times a branch was mispredicted
system.switch_cpus0.commit.committed_per_cycle::samples      7087458                       # Number of insts commited each cycle
system.switch_cpus0.commit.committed_per_cycle::mean     1.604493                       # Number of insts commited each cycle
system.switch_cpus0.commit.committed_per_cycle::stdev     2.306754                       # Number of insts commited each cycle
system.switch_cpus0.commit.committed_per_cycle::underflows            0      0.00%      0.00% # Number of insts commited each cycle
system.switch_cpus0.commit.committed_per_cycle::0      3291205     46.44%     46.44% # Number of insts commited each cycle
system.switch_cpus0.commit.committed_per_cycle::1      1493760     21.08%     67.51% # Number of insts commited each cycle
system.switch_cpus0.commit.committed_per_cycle::2       833374     11.76%     79.27% # Number of insts commited each cycle
system.switch_cpus0.commit.committed_per_cycle::3       283419      4.00%     83.27% # Number of insts commited each cycle
system.switch_cpus0.commit.committed_per_cycle::4       273142      3.85%     87.12% # Number of insts commited each cycle
system.switch_cpus0.commit.committed_per_cycle::5       114794      1.62%     88.74% # Number of insts commited each cycle
system.switch_cpus0.commit.committed_per_cycle::6       299303      4.22%     92.97% # Number of insts commited each cycle
system.switch_cpus0.commit.committed_per_cycle::7        89031      1.26%     94.22% # Number of insts commited each cycle
system.switch_cpus0.commit.committed_per_cycle::8       409430      5.78%    100.00% # Number of insts commited each cycle
system.switch_cpus0.commit.committed_per_cycle::overflows            0      0.00%    100.00% # Number of insts commited each cycle
system.switch_cpus0.commit.committed_per_cycle::min_value            0                       # Number of insts commited each cycle
system.switch_cpus0.commit.committed_per_cycle::max_value            8                       # Number of insts commited each cycle
system.switch_cpus0.commit.committed_per_cycle::total      7087458                       # Number of insts commited each cycle
system.switch_cpus0.commit.committedInsts     10000002                       # Number of instructions committed
system.switch_cpus0.commit.committedOps      11371778                       # Number of ops (including micro ops) committed
system.switch_cpus0.commit.swp_count                0                       # Number of s/w prefetches committed
system.switch_cpus0.commit.refs               2323892                       # Number of memory references committed
system.switch_cpus0.commit.loads              1884951                       # Number of loads committed
system.switch_cpus0.commit.membars               1000                       # Number of memory barriers committed
system.switch_cpus0.commit.branches           1779029                       # Number of branches committed
system.switch_cpus0.commit.fp_insts                 0                       # Number of committed floating point instructions.
system.switch_cpus0.commit.int_insts          9931216                       # Number of committed integer instructions.
system.switch_cpus0.commit.function_calls       154874                       # Number of function calls committed.
system.switch_cpus0.commit.bw_lim_events       409430                       # number cycles where commit BW limit reached
system.switch_cpus0.commit.bw_limited               0                       # number of insts not committed due to BW limits
system.switch_cpus0.rob.rob_reads            23141797                       # The number of ROB reads
system.switch_cpus0.rob.rob_writes           33651193                       # The number of ROB writes
system.switch_cpus0.timesIdled                   3493                       # Number of times that the entire CPU went into an idle state and unscheduled itself
system.switch_cpus0.idleCycles                 171820                       # Total number of cycles that the CPU has spent unscheduled due to idling
system.switch_cpus0.committedInsts           10000002                       # Number of Instructions Simulated
system.switch_cpus0.committedOps             11371778                       # Number of Ops (including micro ops) Simulated
system.switch_cpus0.committedInsts_total     10000002                       # Number of Instructions Simulated
system.switch_cpus0.cpi                      0.798232                       # CPI: Cycles Per Instruction
system.switch_cpus0.cpi_total                0.798232                       # CPI: Total CPI of All Threads
system.switch_cpus0.ipc                      1.252769                       # IPC: Instructions Per Cycle
system.switch_cpus0.ipc_total                1.252769                       # IPC: Total IPC of All Threads
system.switch_cpus0.int_regfile_reads        62806583                       # number of integer regfile reads
system.switch_cpus0.int_regfile_writes       17558252                       # number of integer regfile writes
system.switch_cpus0.misc_regfile_reads       18418161                       # number of misc regfile reads
system.switch_cpus0.misc_regfile_writes          2000                       # number of misc regfile writes
system.switch_cpus1.dtb.inst_hits                   0                       # ITB inst hits
system.switch_cpus1.dtb.inst_misses                 0                       # ITB inst misses
system.switch_cpus1.dtb.read_hits                   0                       # DTB read hits
system.switch_cpus1.dtb.read_misses                 0                       # DTB read misses
system.switch_cpus1.dtb.write_hits                  0                       # DTB write hits
system.switch_cpus1.dtb.write_misses                0                       # DTB write misses
system.switch_cpus1.dtb.flush_tlb                   0                       # Number of times complete TLB was flushed
system.switch_cpus1.dtb.flush_tlb_mva               0                       # Number of times TLB was flushed by MVA
system.switch_cpus1.dtb.flush_tlb_mva_asid            0                       # Number of times TLB was flushed by MVA & ASID
system.switch_cpus1.dtb.flush_tlb_asid              0                       # Number of times TLB was flushed by ASID
system.switch_cpus1.dtb.flush_entries               0                       # Number of entries that have been flushed from TLB
system.switch_cpus1.dtb.align_faults                0                       # Number of TLB faults due to alignment restrictions
system.switch_cpus1.dtb.prefetch_faults             0                       # Number of TLB faults due to prefetch
system.switch_cpus1.dtb.domain_faults               0                       # Number of TLB faults due to domain restrictions
system.switch_cpus1.dtb.perms_faults                0                       # Number of TLB faults due to permissions restrictions
system.switch_cpus1.dtb.read_accesses               0                       # DTB read accesses
system.switch_cpus1.dtb.write_accesses              0                       # DTB write accesses
system.switch_cpus1.dtb.inst_accesses               0                       # ITB inst accesses
system.switch_cpus1.dtb.hits                        0                       # DTB hits
system.switch_cpus1.dtb.misses                      0                       # DTB misses
system.switch_cpus1.dtb.accesses                    0                       # DTB accesses
system.switch_cpus1.itb.inst_hits                   0                       # ITB inst hits
system.switch_cpus1.itb.inst_misses                 0                       # ITB inst misses
system.switch_cpus1.itb.read_hits                   0                       # DTB read hits
system.switch_cpus1.itb.read_misses                 0                       # DTB read misses
system.switch_cpus1.itb.write_hits                  0                       # DTB write hits
system.switch_cpus1.itb.write_misses                0                       # DTB write misses
system.switch_cpus1.itb.flush_tlb                   0                       # Number of times complete TLB was flushed
system.switch_cpus1.itb.flush_tlb_mva               0                       # Number of times TLB was flushed by MVA
system.switch_cpus1.itb.flush_tlb_mva_asid            0                       # Number of times TLB was flushed by MVA & ASID
system.switch_cpus1.itb.flush_tlb_asid              0                       # Number of times TLB was flushed by ASID
system.switch_cpus1.itb.flush_entries               0                       # Number of entries that have been flushed from TLB
system.switch_cpus1.itb.align_faults                0                       # Number of TLB faults due to alignment restrictions
system.switch_cpus1.itb.prefetch_faults             0                       # Number of TLB faults due to prefetch
system.switch_cpus1.itb.domain_faults               0                       # Number of TLB faults due to domain restrictions
system.switch_cpus1.itb.perms_faults                0                       # Number of TLB faults due to permissions restrictions
system.switch_cpus1.itb.read_accesses               0                       # DTB read accesses
system.switch_cpus1.itb.write_accesses              0                       # DTB write accesses
system.switch_cpus1.itb.inst_accesses               0                       # ITB inst accesses
system.switch_cpus1.itb.hits                        0                       # DTB hits
system.switch_cpus1.itb.misses                      0                       # DTB misses
system.switch_cpus1.itb.accesses                    0                       # DTB accesses
system.cpu1.workload.num_syscalls                   0                       # Number of system calls
system.switch_cpus1.numCycles                 7982319                       # number of cpu cycles simulated
system.switch_cpus1.numWorkItemsStarted             0                       # number of work items this cpu started
system.switch_cpus1.numWorkItemsCompleted            0                       # number of work items this cpu completed
system.switch_cpus1.BPredUnit.lookups         2844675                       # Number of BP lookups
system.switch_cpus1.BPredUnit.condPredicted      2312590                       # Number of conditional branches predicted
system.switch_cpus1.BPredUnit.condIncorrect       195444                       # Number of conditional branches incorrect
system.switch_cpus1.BPredUnit.BTBLookups      1159713                       # Number of BTB lookups
system.switch_cpus1.BPredUnit.BTBHits         1100902                       # Number of BTB hits
system.switch_cpus1.BPredUnit.BTBCorrect            0                       # Number of correct BTB predictions (this stat may not work properly.
system.switch_cpus1.BPredUnit.usedRAS          297948                       # Number of times the RAS was used to get a target.
system.switch_cpus1.BPredUnit.RASInCorrect         8310                       # Number of incorrect RAS predictions.
system.switch_cpus1.fetch.icacheStallCycles      2845228                       # Number of cycles fetch is stalled on an Icache miss
system.switch_cpus1.fetch.Insts              15764597                       # Number of instructions fetch has processed
system.switch_cpus1.fetch.Branches            2844675                       # Number of branches that fetch encountered
system.switch_cpus1.fetch.predictedBranches      1398850                       # Number of branches that fetch has predicted taken
system.switch_cpus1.fetch.Cycles              3462698                       # Number of cycles fetch has run and was not squashing or blocked
system.switch_cpus1.fetch.SquashCycles        1046455                       # Number of cycles fetch has spent squashing
system.switch_cpus1.fetch.BlockedCycles        623850                       # Number of cycles fetch has spent blocked
system.switch_cpus1.fetch.PendingTrapStallCycles           12                       # Number of stall cycles due to pending traps
system.switch_cpus1.fetch.CacheLines          1393071                       # Number of cache lines fetched
system.switch_cpus1.fetch.IcacheSquashes        83516                       # Number of outstanding Icache misses that were squashed
system.switch_cpus1.fetch.rateDist::samples      7778522                       # Number of instructions fetched each cycle (Total)
system.switch_cpus1.fetch.rateDist::mean     2.504762                       # Number of instructions fetched each cycle (Total)
system.switch_cpus1.fetch.rateDist::stdev     3.306204                       # Number of instructions fetched each cycle (Total)
system.switch_cpus1.fetch.rateDist::underflows            0      0.00%      0.00% # Number of instructions fetched each cycle (Total)
system.switch_cpus1.fetch.rateDist::0         4315824     55.48%     55.48% # Number of instructions fetched each cycle (Total)
system.switch_cpus1.fetch.rateDist::1          305816      3.93%     59.42% # Number of instructions fetched each cycle (Total)
system.switch_cpus1.fetch.rateDist::2          243366      3.13%     62.54% # Number of instructions fetched each cycle (Total)
system.switch_cpus1.fetch.rateDist::3          594186      7.64%     70.18% # Number of instructions fetched each cycle (Total)
system.switch_cpus1.fetch.rateDist::4          159563      2.05%     72.23% # Number of instructions fetched each cycle (Total)
system.switch_cpus1.fetch.rateDist::5          207034      2.66%     74.90% # Number of instructions fetched each cycle (Total)
system.switch_cpus1.fetch.rateDist::6          151502      1.95%     76.84% # Number of instructions fetched each cycle (Total)
system.switch_cpus1.fetch.rateDist::7           84043      1.08%     77.92% # Number of instructions fetched each cycle (Total)
system.switch_cpus1.fetch.rateDist::8         1717188     22.08%    100.00% # Number of instructions fetched each cycle (Total)
system.switch_cpus1.fetch.rateDist::overflows            0      0.00%    100.00% # Number of instructions fetched each cycle (Total)
system.switch_cpus1.fetch.rateDist::min_value            0                       # Number of instructions fetched each cycle (Total)
system.switch_cpus1.fetch.rateDist::max_value            8                       # Number of instructions fetched each cycle (Total)
system.switch_cpus1.fetch.rateDist::total      7778522                       # Number of instructions fetched each cycle (Total)
system.switch_cpus1.fetch.branchRate         0.356372                       # Number of branch fetches per cycle
system.switch_cpus1.fetch.rate               1.974939                       # Number of inst fetches per cycle
system.switch_cpus1.decode.IdleCycles         2978243                       # Number of cycles decode is idle
system.switch_cpus1.decode.BlockedCycles       607402                       # Number of cycles decode is blocked
system.switch_cpus1.decode.RunCycles          3327259                       # Number of cycles decode is running
system.switch_cpus1.decode.UnblockCycles        23240                       # Number of cycles decode is unblocking
system.switch_cpus1.decode.SquashCycles        842373                       # Number of cycles decode is squashing
system.switch_cpus1.decode.BranchResolved       484851                       # Number of times decode resolved a branch
system.switch_cpus1.decode.BranchMispred         4425                       # Number of times decode detected a branch misprediction
system.switch_cpus1.decode.DecodedInsts      18840116                       # Number of instructions handled by decode
system.switch_cpus1.decode.SquashedInsts        10448                       # Number of squashed instructions handled by decode
system.switch_cpus1.rename.SquashCycles        842373                       # Number of cycles rename is squashing
system.switch_cpus1.rename.IdleCycles         3197632                       # Number of cycles rename is idle
system.switch_cpus1.rename.BlockCycles         133138                       # Number of cycles rename is blocking
system.switch_cpus1.rename.serializeStallCycles       152260                       # count of cycles rename stalled for serializing inst
system.switch_cpus1.rename.RunCycles          3125683                       # Number of cycles rename is running
system.switch_cpus1.rename.UnblockCycles       327431                       # Number of cycles rename is unblocking
system.switch_cpus1.rename.RenamedInsts      18169880                       # Number of instructions processed by rename
system.switch_cpus1.rename.ROBFullEvents         3222                       # Number of times rename has blocked due to ROB full
system.switch_cpus1.rename.IQFullEvents        134083                       # Number of times rename has blocked due to IQ full
system.switch_cpus1.rename.LSQFullEvents       102592                       # Number of times rename has blocked due to LSQ full
system.switch_cpus1.rename.FullRegisterEvents          177                       # Number of times there has been no free registers
system.switch_cpus1.rename.RenamedOperands     25437030                       # Number of destination operands rename has renamed
system.switch_cpus1.rename.RenameLookups     84802290                       # Number of register rename lookups that rename has made
system.switch_cpus1.rename.int_rename_lookups     84802290                       # Number of integer rename lookups
system.switch_cpus1.rename.CommittedMaps     15531468                       # Number of HB maps that are committed
system.switch_cpus1.rename.UndoneMaps         9905506                       # Number of HB maps that are undone due to squashing
system.switch_cpus1.rename.serializingInsts         3791                       # count of serializing insts renamed
system.switch_cpus1.rename.tempSerializingInsts         2166                       # count of temporary serializing insts renamed
system.switch_cpus1.rename.skidInsts           904778                       # count of insts added to the skid buffer
system.switch_cpus1.memDep0.insertedLoads      1699453                       # Number of loads inserted to the mem dependence unit.
system.switch_cpus1.memDep0.insertedStores       864096                       # Number of stores inserted to the mem dependence unit.
system.switch_cpus1.memDep0.conflictingLoads        13262                       # Number of conflicting loads.
system.switch_cpus1.memDep0.conflictingStores       258441                       # Number of conflicting stores.
system.switch_cpus1.iq.iqInstsAdded          17169074                       # Number of instructions added to the IQ (excludes non-spec)
system.switch_cpus1.iq.iqNonSpecInstsAdded         3648                       # Number of non-speculative instructions added to the IQ
system.switch_cpus1.iq.iqInstsIssued         13612271                       # Number of instructions issued
system.switch_cpus1.iq.iqSquashedInstsIssued        27447                       # Number of squashed instructions issued
system.switch_cpus1.iq.iqSquashedInstsExamined      5968860                       # Number of squashed instructions iterated over during squash; mainly for profiling
system.switch_cpus1.iq.iqSquashedOperandsExamined     18238345                       # Number of squashed operands that are examined and possibly removed from graph
system.switch_cpus1.iq.iqSquashedNonSpecRemoved          639                       # Number of squashed non-spec instructions that were removed
system.switch_cpus1.iq.issued_per_cycle::samples      7778522                       # Number of insts issued each cycle
system.switch_cpus1.iq.issued_per_cycle::mean     1.749982                       # Number of insts issued each cycle
system.switch_cpus1.iq.issued_per_cycle::stdev     1.888179                       # Number of insts issued each cycle
system.switch_cpus1.iq.issued_per_cycle::underflows            0      0.00%      0.00% # Number of insts issued each cycle
system.switch_cpus1.iq.issued_per_cycle::0      2738767     35.21%     35.21% # Number of insts issued each cycle
system.switch_cpus1.iq.issued_per_cycle::1      1666175     21.42%     56.63% # Number of insts issued each cycle
system.switch_cpus1.iq.issued_per_cycle::2      1079243     13.87%     70.50% # Number of insts issued each cycle
system.switch_cpus1.iq.issued_per_cycle::3       805860     10.36%     80.86% # Number of insts issued each cycle
system.switch_cpus1.iq.issued_per_cycle::4       695861      8.95%     89.81% # Number of insts issued each cycle
system.switch_cpus1.iq.issued_per_cycle::5       358235      4.61%     94.42% # Number of insts issued each cycle
system.switch_cpus1.iq.issued_per_cycle::6       311004      4.00%     98.41% # Number of insts issued each cycle
system.switch_cpus1.iq.issued_per_cycle::7        57629      0.74%     99.15% # Number of insts issued each cycle
system.switch_cpus1.iq.issued_per_cycle::8        65748      0.85%    100.00% # Number of insts issued each cycle
system.switch_cpus1.iq.issued_per_cycle::overflows            0      0.00%    100.00% # Number of insts issued each cycle
system.switch_cpus1.iq.issued_per_cycle::min_value            0                       # Number of insts issued each cycle
system.switch_cpus1.iq.issued_per_cycle::max_value            8                       # Number of insts issued each cycle
system.switch_cpus1.iq.issued_per_cycle::total      7778522                       # Number of insts issued each cycle
system.switch_cpus1.iq.fu_full::No_OpClass            0      0.00%      0.00% # attempts to use FU when none available
system.switch_cpus1.iq.fu_full::IntAlu          79916     70.67%     70.67% # attempts to use FU when none available
system.switch_cpus1.iq.fu_full::IntMult             0      0.00%     70.67% # attempts to use FU when none available
system.switch_cpus1.iq.fu_full::IntDiv              0      0.00%     70.67% # attempts to use FU when none available
system.switch_cpus1.iq.fu_full::FloatAdd            0      0.00%     70.67% # attempts to use FU when none available
system.switch_cpus1.iq.fu_full::FloatCmp            0      0.00%     70.67% # attempts to use FU when none available
system.switch_cpus1.iq.fu_full::FloatCvt            0      0.00%     70.67% # attempts to use FU when none available
system.switch_cpus1.iq.fu_full::FloatMult            0      0.00%     70.67% # attempts to use FU when none available
system.switch_cpus1.iq.fu_full::FloatDiv            0      0.00%     70.67% # attempts to use FU when none available
system.switch_cpus1.iq.fu_full::FloatSqrt            0      0.00%     70.67% # attempts to use FU when none available
system.switch_cpus1.iq.fu_full::SimdAdd             0      0.00%     70.67% # attempts to use FU when none available
system.switch_cpus1.iq.fu_full::SimdAddAcc            0      0.00%     70.67% # attempts to use FU when none available
system.switch_cpus1.iq.fu_full::SimdAlu             0      0.00%     70.67% # attempts to use FU when none available
system.switch_cpus1.iq.fu_full::SimdCmp             0      0.00%     70.67% # attempts to use FU when none available
system.switch_cpus1.iq.fu_full::SimdCvt             0      0.00%     70.67% # attempts to use FU when none available
system.switch_cpus1.iq.fu_full::SimdMisc            0      0.00%     70.67% # attempts to use FU when none available
system.switch_cpus1.iq.fu_full::SimdMult            0      0.00%     70.67% # attempts to use FU when none available
system.switch_cpus1.iq.fu_full::SimdMultAcc            0      0.00%     70.67% # attempts to use FU when none available
system.switch_cpus1.iq.fu_full::SimdShift            0      0.00%     70.67% # attempts to use FU when none available
system.switch_cpus1.iq.fu_full::SimdShiftAcc            0      0.00%     70.67% # attempts to use FU when none available
system.switch_cpus1.iq.fu_full::SimdSqrt            0      0.00%     70.67% # attempts to use FU when none available
system.switch_cpus1.iq.fu_full::SimdFloatAdd            0      0.00%     70.67% # attempts to use FU when none available
system.switch_cpus1.iq.fu_full::SimdFloatAlu            0      0.00%     70.67% # attempts to use FU when none available
system.switch_cpus1.iq.fu_full::SimdFloatCmp            0      0.00%     70.67% # attempts to use FU when none available
system.switch_cpus1.iq.fu_full::SimdFloatCvt            0      0.00%     70.67% # attempts to use FU when none available
system.switch_cpus1.iq.fu_full::SimdFloatDiv            0      0.00%     70.67% # attempts to use FU when none available
system.switch_cpus1.iq.fu_full::SimdFloatMisc            0      0.00%     70.67% # attempts to use FU when none available
system.switch_cpus1.iq.fu_full::SimdFloatMult            0      0.00%     70.67% # attempts to use FU when none available
system.switch_cpus1.iq.fu_full::SimdFloatMultAcc            0      0.00%     70.67% # attempts to use FU when none available
system.switch_cpus1.iq.fu_full::SimdFloatSqrt            0      0.00%     70.67% # attempts to use FU when none available
system.switch_cpus1.iq.fu_full::MemRead         16829     14.88%     85.56% # attempts to use FU when none available
system.switch_cpus1.iq.fu_full::MemWrite        16331     14.44%    100.00% # attempts to use FU when none available
system.switch_cpus1.iq.fu_full::IprAccess            0      0.00%    100.00% # attempts to use FU when none available
system.switch_cpus1.iq.fu_full::InstPrefetch            0      0.00%    100.00% # attempts to use FU when none available
system.switch_cpus1.iq.FU_type_0::No_OpClass            0      0.00%      0.00% # Type of FU issued
system.switch_cpus1.iq.FU_type_0::IntAlu     11340735     83.31%     83.31% # Type of FU issued
system.switch_cpus1.iq.FU_type_0::IntMult       193040      1.42%     84.73% # Type of FU issued
system.switch_cpus1.iq.FU_type_0::IntDiv            0      0.00%     84.73% # Type of FU issued
system.switch_cpus1.iq.FU_type_0::FloatAdd            0      0.00%     84.73% # Type of FU issued
system.switch_cpus1.iq.FU_type_0::FloatCmp            0      0.00%     84.73% # Type of FU issued
system.switch_cpus1.iq.FU_type_0::FloatCvt            0      0.00%     84.73% # Type of FU issued
system.switch_cpus1.iq.FU_type_0::FloatMult            0      0.00%     84.73% # Type of FU issued
system.switch_cpus1.iq.FU_type_0::FloatDiv            0      0.00%     84.73% # Type of FU issued
system.switch_cpus1.iq.FU_type_0::FloatSqrt            0      0.00%     84.73% # Type of FU issued
system.switch_cpus1.iq.FU_type_0::SimdAdd            0      0.00%     84.73% # Type of FU issued
system.switch_cpus1.iq.FU_type_0::SimdAddAcc            0      0.00%     84.73% # Type of FU issued
system.switch_cpus1.iq.FU_type_0::SimdAlu            0      0.00%     84.73% # Type of FU issued
system.switch_cpus1.iq.FU_type_0::SimdCmp            0      0.00%     84.73% # Type of FU issued
system.switch_cpus1.iq.FU_type_0::SimdCvt            0      0.00%     84.73% # Type of FU issued
system.switch_cpus1.iq.FU_type_0::SimdMisc            0      0.00%     84.73% # Type of FU issued
system.switch_cpus1.iq.FU_type_0::SimdMult            0      0.00%     84.73% # Type of FU issued
system.switch_cpus1.iq.FU_type_0::SimdMultAcc            0      0.00%     84.73% # Type of FU issued
system.switch_cpus1.iq.FU_type_0::SimdShift            0      0.00%     84.73% # Type of FU issued
system.switch_cpus1.iq.FU_type_0::SimdShiftAcc            0      0.00%     84.73% # Type of FU issued
system.switch_cpus1.iq.FU_type_0::SimdSqrt            0      0.00%     84.73% # Type of FU issued
system.switch_cpus1.iq.FU_type_0::SimdFloatAdd            0      0.00%     84.73% # Type of FU issued
system.switch_cpus1.iq.FU_type_0::SimdFloatAlu            0      0.00%     84.73% # Type of FU issued
system.switch_cpus1.iq.FU_type_0::SimdFloatCmp            0      0.00%     84.73% # Type of FU issued
system.switch_cpus1.iq.FU_type_0::SimdFloatCvt            0      0.00%     84.73% # Type of FU issued
system.switch_cpus1.iq.FU_type_0::SimdFloatDiv            0      0.00%     84.73% # Type of FU issued
system.switch_cpus1.iq.FU_type_0::SimdFloatMisc         1504      0.01%     84.74% # Type of FU issued
system.switch_cpus1.iq.FU_type_0::SimdFloatMult            0      0.00%     84.74% # Type of FU issued
system.switch_cpus1.iq.FU_type_0::SimdFloatMultAcc            0      0.00%     84.74% # Type of FU issued
system.switch_cpus1.iq.FU_type_0::SimdFloatSqrt            0      0.00%     84.74% # Type of FU issued
system.switch_cpus1.iq.FU_type_0::MemRead      1350435      9.92%     94.66% # Type of FU issued
system.switch_cpus1.iq.FU_type_0::MemWrite       726557      5.34%    100.00% # Type of FU issued
system.switch_cpus1.iq.FU_type_0::IprAccess            0      0.00%    100.00% # Type of FU issued
system.switch_cpus1.iq.FU_type_0::InstPrefetch            0      0.00%    100.00% # Type of FU issued
system.switch_cpus1.iq.FU_type_0::total      13612271                       # Type of FU issued
system.switch_cpus1.iq.rate                  1.705303                       # Inst issue rate
system.switch_cpus1.iq.fu_busy_cnt             113076                       # FU busy when requested
system.switch_cpus1.iq.fu_busy_rate          0.008307                       # FU busy rate (busy events/executed inst)
system.switch_cpus1.iq.int_inst_queue_reads     35143587                       # Number of integer instruction queue reads
system.switch_cpus1.iq.int_inst_queue_writes     23141641                       # Number of integer instruction queue writes
system.switch_cpus1.iq.int_inst_queue_wakeup_accesses     13262043                       # Number of integer instruction queue wakeup accesses
system.switch_cpus1.iq.fp_inst_queue_reads            0                       # Number of floating instruction queue reads
system.switch_cpus1.iq.fp_inst_queue_writes            0                       # Number of floating instruction queue writes
system.switch_cpus1.iq.fp_inst_queue_wakeup_accesses            0                       # Number of floating instruction queue wakeup accesses
system.switch_cpus1.iq.int_alu_accesses      13725347                       # Number of integer alu accesses
system.switch_cpus1.iq.fp_alu_accesses              0                       # Number of floating point alu accesses
system.switch_cpus1.iew.lsq.thread0.forwLoads        50524                       # Number of loads that had data forwarded from stores
system.switch_cpus1.iew.lsq.thread0.invAddrLoads            0                       # Number of loads ignored due to an invalid address
system.switch_cpus1.iew.lsq.thread0.squashedLoads       677211                       # Number of loads squashed
system.switch_cpus1.iew.lsq.thread0.ignoredResponses          254                       # Number of memory responses ignored because the instruction is squashed
system.switch_cpus1.iew.lsq.thread0.memOrderViolation           59                       # Number of memory ordering violations
system.switch_cpus1.iew.lsq.thread0.squashedStores       224855                       # Number of stores squashed
system.switch_cpus1.iew.lsq.thread0.invAddrSwpfs            0                       # Number of software prefetches ignored due to an invalid address
system.switch_cpus1.iew.lsq.thread0.blockedLoads            0                       # Number of blocked loads due to partial load-store forwarding
system.switch_cpus1.iew.lsq.thread0.rescheduledLoads            0                       # Number of loads that were rescheduled
system.switch_cpus1.iew.lsq.thread0.cacheBlocked            0                       # Number of times an access to memory failed due to the cache being blocked
system.switch_cpus1.iew.iewIdleCycles               0                       # Number of cycles IEW is idle
system.switch_cpus1.iew.iewSquashCycles        842373                       # Number of cycles IEW is squashing
system.switch_cpus1.iew.iewBlockCycles          55280                       # Number of cycles IEW is blocking
system.switch_cpus1.iew.iewUnblockCycles         7448                       # Number of cycles IEW is unblocking
system.switch_cpus1.iew.iewDispatchedInsts     17172723                       # Number of instructions dispatched to IQ
system.switch_cpus1.iew.iewDispSquashedInsts        37330                       # Number of squashed instructions skipped by dispatch
system.switch_cpus1.iew.iewDispLoadInsts      1699453                       # Number of dispatched load instructions
system.switch_cpus1.iew.iewDispStoreInsts       864096                       # Number of dispatched store instructions
system.switch_cpus1.iew.iewDispNonSpecInsts         2144                       # Number of dispatched non-speculative instructions
system.switch_cpus1.iew.iewIQFullEvents          6611                       # Number of times the IQ has become full, causing a stall
system.switch_cpus1.iew.iewLSQFullEvents            0                       # Number of times the LSQ has become full, causing a stall
system.switch_cpus1.iew.memOrderViolationEvents           59                       # Number of memory order violations
system.switch_cpus1.iew.predictedTakenIncorrect       114785                       # Number of branches that were predicted taken incorrectly
system.switch_cpus1.iew.predictedNotTakenIncorrect       111518                       # Number of branches that were predicted not taken incorrectly
system.switch_cpus1.iew.branchMispredicts       226303                       # Number of branch mispredicts detected at execute
system.switch_cpus1.iew.iewExecutedInsts     13392963                       # Number of executed instructions
system.switch_cpus1.iew.iewExecLoadInsts      1267163                       # Number of load instructions executed
system.switch_cpus1.iew.iewExecSquashedInsts       219308                       # Number of squashed instructions skipped in execute
system.switch_cpus1.iew.exec_swp                    0                       # number of swp insts executed
system.switch_cpus1.iew.exec_nop                    1                       # number of nop insts executed
system.switch_cpus1.iew.exec_refs             1973822                       # number of memory reference insts executed
system.switch_cpus1.iew.exec_branches         1890217                       # Number of branches executed
system.switch_cpus1.iew.exec_stores            706659                       # Number of stores executed
system.switch_cpus1.iew.exec_rate            1.677829                       # Inst execution rate
system.switch_cpus1.iew.wb_sent              13270907                       # cumulative count of insts sent to commit
system.switch_cpus1.iew.wb_count             13262043                       # cumulative count of insts written-back
system.switch_cpus1.iew.wb_producers          8638378                       # num instructions producing a value
system.switch_cpus1.iew.wb_consumers         24395552                       # num instructions consuming a value
system.switch_cpus1.iew.wb_penalized                0                       # number of instrctions required to write to 'other' IQ
system.switch_cpus1.iew.wb_rate              1.661427                       # insts written-back per cycle
system.switch_cpus1.iew.wb_fanout            0.354096                       # average fanout of values written-back
system.switch_cpus1.iew.wb_penalized_rate            0                       # fraction of instructions written-back that wrote to 'other' IQ
system.switch_cpus1.commit.commitCommittedInsts      9098709                       # The number of committed instructions
system.switch_cpus1.commit.commitCommittedOps     11174171                       # The number of committed instructions
system.switch_cpus1.commit.commitSquashedInsts      5998548                       # The number of squashed insts skipped by commit
system.switch_cpus1.commit.commitNonSpecStalls         3008                       # The number of times commit has been forced to stall to communicate backwards
system.switch_cpus1.commit.branchMispredicts       195320                       # The number of times a branch was mispredicted
[...]
system.cpu3.icache.ReadReq_miss_latency::switch_cpus3.inst      1080239                       # number of ReadReq miss cycles
system.cpu3.icache.ReadReq_miss_latency::total      1080239                       # number of ReadReq miss cycles
system.cpu3.icache.demand_miss_latency::switch_cpus3.inst      1080239                       # number of demand (read+write) miss cycles
system.cpu3.icache.demand_miss_latency::total      1080239                       # number of demand (read+write) miss cycles
system.cpu3.icache.overall_miss_latency::switch_cpus3.inst      1080239                       # number of overall miss cycles
system.cpu3.icache.overall_miss_latency::total      1080239                       # number of overall miss cycles
system.cpu3.icache.ReadReq_accesses::switch_cpus3.inst      1503392                       # number of ReadReq accesses(hits+misses)
system.cpu3.icache.ReadReq_accesses::total      1503392                       # number of ReadReq accesses(hits+misses)
system.cpu3.icache.demand_accesses::switch_cpus3.inst      1503392                       # number of demand (read+write) accesses
system.cpu3.icache.demand_accesses::total      1503392                       # number of demand (read+write) accesses
system.cpu3.icache.overall_accesses::switch_cpus3.inst      1503392                       # number of overall (read+write) accesses
system.cpu3.icache.overall_accesses::total      1503392                       # number of overall (read+write) accesses
system.cpu3.icache.ReadReq_miss_rate::switch_cpus3.inst     0.000013                       # miss rate for ReadReq accesses
system.cpu3.icache.ReadReq_miss_rate::total     0.000013                       # miss rate for ReadReq accesses
system.cpu3.icache.demand_miss_rate::switch_cpus3.inst     0.000013                       # miss rate for demand accesses
system.cpu3.icache.demand_miss_rate::total     0.000013                       # miss rate for demand accesses
system.cpu3.icache.overall_miss_rate::switch_cpus3.inst     0.000013                       # miss rate for overall accesses
system.cpu3.icache.overall_miss_rate::total     0.000013                       # miss rate for overall accesses
system.cpu3.icache.ReadReq_avg_miss_latency::switch_cpus3.inst 56854.684211                       # average ReadReq miss latency
system.cpu3.icache.ReadReq_avg_miss_latency::total 56854.684211                       # average ReadReq miss latency
system.cpu3.icache.demand_avg_miss_latency::switch_cpus3.inst 56854.684211                       # average overall miss latency
system.cpu3.icache.demand_avg_miss_latency::total 56854.684211                       # average overall miss latency
system.cpu3.icache.overall_avg_miss_latency::switch_cpus3.inst 56854.684211                       # average overall miss latency
system.cpu3.icache.overall_avg_miss_latency::total 56854.684211                       # average overall miss latency
system.cpu3.icache.blocked_cycles::no_mshrs            0                       # number of cycles access was blocked
system.cpu3.icache.blocked_cycles::no_targets            0                       # number of cycles access was blocked
system.cpu3.icache.blocked::no_mshrs                0                       # number of cycles access was blocked
system.cpu3.icache.blocked::no_targets              0                       # number of cycles access was blocked
system.cpu3.icache.avg_blocked_cycles::no_mshrs          nan                       # average number of cycles each access was blocked
system.cpu3.icache.avg_blocked_cycles::no_targets          nan                       # average number of cycles each access was blocked
system.cpu3.icache.fast_writes                      0                       # number of fast writes performed
system.cpu3.icache.cache_copies                     0                       # number of cache copies performed
system.cpu3.icache.ReadReq_mshr_hits::switch_cpus3.inst            3                       # number of ReadReq MSHR hits
system.cpu3.icache.ReadReq_mshr_hits::total            3                       # number of ReadReq MSHR hits
system.cpu3.icache.demand_mshr_hits::switch_cpus3.inst            3                       # number of demand (read+write) MSHR hits
system.cpu3.icache.demand_mshr_hits::total            3                       # number of demand (read+write) MSHR hits
system.cpu3.icache.overall_mshr_hits::switch_cpus3.inst            3                       # number of overall MSHR hits
system.cpu3.icache.overall_mshr_hits::total            3                       # number of overall MSHR hits
system.cpu3.icache.ReadReq_mshr_misses::switch_cpus3.inst           16                       # number of ReadReq MSHR misses
system.cpu3.icache.ReadReq_mshr_misses::total           16                       # number of ReadReq MSHR misses
system.cpu3.icache.demand_mshr_misses::switch_cpus3.inst           16                       # number of demand (read+write) MSHR misses
system.cpu3.icache.demand_mshr_misses::total           16                       # number of demand (read+write) MSHR misses
system.cpu3.icache.overall_mshr_misses::switch_cpus3.inst           16                       # number of overall MSHR misses
system.cpu3.icache.overall_mshr_misses::total           16                       # number of overall MSHR misses
system.cpu3.icache.ReadReq_mshr_miss_latency::switch_cpus3.inst       839470                       # number of ReadReq MSHR miss cycles
system.cpu3.icache.ReadReq_mshr_miss_latency::total       839470                       # number of ReadReq MSHR miss cycles
system.cpu3.icache.demand_mshr_miss_latency::switch_cpus3.inst       839470                       # number of demand (read+write) MSHR miss cycles
system.cpu3.icache.demand_mshr_miss_latency::total       839470                       # number of demand (read+write) MSHR miss cycles
system.cpu3.icache.overall_mshr_miss_latency::switch_cpus3.inst       839470                       # number of overall MSHR miss cycles
system.cpu3.icache.overall_mshr_miss_latency::total       839470                       # number of overall MSHR miss cycles
system.cpu3.icache.ReadReq_mshr_miss_rate::switch_cpus3.inst     0.000011                       # mshr miss rate for ReadReq accesses
system.cpu3.icache.ReadReq_mshr_miss_rate::total     0.000011                       # mshr miss rate for ReadReq accesses
system.cpu3.icache.demand_mshr_miss_rate::switch_cpus3.inst     0.000011                       # mshr miss rate for demand accesses
system.cpu3.icache.demand_mshr_miss_rate::total     0.000011                       # mshr miss rate for demand accesses
system.cpu3.icache.overall_mshr_miss_rate::switch_cpus3.inst     0.000011                       # mshr miss rate for overall accesses
system.cpu3.icache.overall_mshr_miss_rate::total     0.000011                       # mshr miss rate for overall accesses
system.cpu3.icache.ReadReq_avg_mshr_miss_latency::switch_cpus3.inst 52466.875000                       # average ReadReq mshr miss latency
system.cpu3.icache.ReadReq_avg_mshr_miss_latency::total 52466.875000                       # average ReadReq mshr miss latency
system.cpu3.icache.demand_avg_mshr_miss_latency::switch_cpus3.inst 52466.875000                       # average overall mshr miss latency
system.cpu3.icache.demand_avg_mshr_miss_latency::total 52466.875000                       # average overall mshr miss latency
system.cpu3.icache.overall_avg_mshr_miss_latency::switch_cpus3.inst 52466.875000                       # average overall mshr miss latency
system.cpu3.icache.overall_avg_mshr_miss_latency::total 52466.875000                       # average overall mshr miss latency
system.cpu3.icache.no_allocate_misses               0                       # Number of misses that were no-allocate
system.cpu3.dcache.replacements                  3123                       # number of replacements
system.cpu3.dcache.tagsinuse                      256                       # Cycle average of tags in use
system.cpu3.dcache.total_refs               161232477                       # Total number of references to valid blocks.
system.cpu3.dcache.sampled_refs                  3379                       # Sample count of references to valid blocks.
system.cpu3.dcache.avg_refs              47716.033442                       # Average number of references to valid blocks.
system.cpu3.dcache.warmup_cycle                     0                       # Cycle when the warmup percentage was hit.
system.cpu3.dcache.occ_blocks::switch_cpus3.data   212.745738                       # Average occupied blocks per requestor
system.cpu3.dcache.occ_blocks::cpu3.data    43.254262                       # Average occupied blocks per requestor
system.cpu3.dcache.occ_percent::switch_cpus3.data     0.831038                       # Average percentage of cache occupancy
system.cpu3.dcache.occ_percent::cpu3.data     0.168962                       # Average percentage of cache occupancy
system.cpu3.dcache.occ_percent::total               1                       # Average percentage of cache occupancy
system.cpu3.dcache.ReadReq_hits::switch_cpus3.data       977825                       # number of ReadReq hits
system.cpu3.dcache.ReadReq_hits::total         977825                       # number of ReadReq hits
system.cpu3.dcache.WriteReq_hits::switch_cpus3.data       665761                       # number of WriteReq hits
system.cpu3.dcache.WriteReq_hits::total        665761                       # number of WriteReq hits
system.cpu3.dcache.LoadLockedReq_hits::switch_cpus3.data         1614                       # number of LoadLockedReq hits
system.cpu3.dcache.LoadLockedReq_hits::total         1614                       # number of LoadLockedReq hits
system.cpu3.dcache.StoreCondReq_hits::switch_cpus3.data         1608                       # number of StoreCondReq hits
system.cpu3.dcache.StoreCondReq_hits::total         1608                       # number of StoreCondReq hits
system.cpu3.dcache.demand_hits::switch_cpus3.data      1643586                       # number of demand (read+write) hits
system.cpu3.dcache.demand_hits::total         1643586                       # number of demand (read+write) hits
system.cpu3.dcache.overall_hits::switch_cpus3.data      1643586                       # number of overall hits
system.cpu3.dcache.overall_hits::total        1643586                       # number of overall hits
system.cpu3.dcache.ReadReq_misses::switch_cpus3.data         6474                       # number of ReadReq misses
system.cpu3.dcache.ReadReq_misses::total         6474                       # number of ReadReq misses
system.cpu3.dcache.demand_misses::switch_cpus3.data         6474                       # number of demand (read+write) misses
system.cpu3.dcache.demand_misses::total          6474                       # number of demand (read+write) misses
system.cpu3.dcache.overall_misses::switch_cpus3.data         6474                       # number of overall misses
system.cpu3.dcache.overall_misses::total         6474                       # number of overall misses
system.cpu3.dcache.ReadReq_miss_latency::switch_cpus3.data    229757938                       # number of ReadReq miss cycles
system.cpu3.dcache.ReadReq_miss_latency::total    229757938                       # number of ReadReq miss cycles
system.cpu3.dcache.demand_miss_latency::switch_cpus3.data    229757938                       # number of demand (read+write) miss cycles
system.cpu3.dcache.demand_miss_latency::total    229757938                       # number of demand (read+write) miss cycles
system.cpu3.dcache.overall_miss_latency::switch_cpus3.data    229757938                       # number of overall miss cycles
system.cpu3.dcache.overall_miss_latency::total    229757938                       # number of overall miss cycles
system.cpu3.dcache.ReadReq_accesses::switch_cpus3.data       984299                       # number of ReadReq accesses(hits+misses)
system.cpu3.dcache.ReadReq_accesses::total       984299                       # number of ReadReq accesses(hits+misses)
system.cpu3.dcache.WriteReq_accesses::switch_cpus3.data       665761                       # number of WriteReq accesses(hits+misses)
system.cpu3.dcache.WriteReq_accesses::total       665761                       # number of WriteReq accesses(hits+misses)
system.cpu3.dcache.LoadLockedReq_accesses::switch_cpus3.data         1614                       # number of LoadLockedReq accesses(hits+misses)
system.cpu3.dcache.LoadLockedReq_accesses::total         1614                       # number of LoadLockedReq accesses(hits+misses)
system.cpu3.dcache.StoreCondReq_accesses::switch_cpus3.data         1608                       # number of StoreCondReq accesses(hits+misses)
system.cpu3.dcache.StoreCondReq_accesses::total         1608                       # number of StoreCondReq accesses(hits+misses)
system.cpu3.dcache.demand_accesses::switch_cpus3.data      1650060                       # number of demand (read+write) accesses
system.cpu3.dcache.demand_accesses::total      1650060                       # number of demand (read+write) accesses
system.cpu3.dcache.overall_accesses::switch_cpus3.data      1650060                       # number of overall (read+write) accesses
system.cpu3.dcache.overall_accesses::total      1650060                       # number of overall (read+write) accesses
system.cpu3.dcache.ReadReq_miss_rate::switch_cpus3.data     0.006577                       # miss rate for ReadReq accesses
system.cpu3.dcache.ReadReq_miss_rate::total     0.006577                       # miss rate for ReadReq accesses
system.cpu3.dcache.demand_miss_rate::switch_cpus3.data     0.003923                       # miss rate for demand accesses
system.cpu3.dcache.demand_miss_rate::total     0.003923                       # miss rate for demand accesses
system.cpu3.dcache.overall_miss_rate::switch_cpus3.data     0.003923                       # miss rate for overall accesses
system.cpu3.dcache.overall_miss_rate::total     0.003923                       # miss rate for overall accesses
system.cpu3.dcache.ReadReq_avg_miss_latency::switch_cpus3.data 35489.332407                       # average ReadReq miss latency
system.cpu3.dcache.ReadReq_avg_miss_latency::total 35489.332407                       # average ReadReq miss latency
system.cpu3.dcache.demand_avg_miss_latency::switch_cpus3.data 35489.332407                       # average overall miss latency
system.cpu3.dcache.demand_avg_miss_latency::total 35489.332407                       # average overall miss latency
system.cpu3.dcache.overall_avg_miss_latency::switch_cpus3.data 35489.332407                       # average overall miss latency
system.cpu3.dcache.overall_avg_miss_latency::total 35489.332407                       # average overall miss latency
system.cpu3.dcache.blocked_cycles::no_mshrs            0                       # number of cycles access was blocked
system.cpu3.dcache.blocked_cycles::no_targets            0                       # number of cycles access was blocked
system.cpu3.dcache.blocked::no_mshrs                0                       # number of cycles access was blocked
system.cpu3.dcache.blocked::no_targets              0                       # number of cycles access was blocked
system.cpu3.dcache.avg_blocked_cycles::no_mshrs          nan                       # average number of cycles each access was blocked
system.cpu3.dcache.avg_blocked_cycles::no_targets          nan                       # average number of cycles each access was blocked
system.cpu3.dcache.fast_writes                      0                       # number of fast writes performed
system.cpu3.dcache.cache_copies                     0                       # number of cache copies performed
system.cpu3.dcache.writebacks::writebacks          704                       # number of writebacks
system.cpu3.dcache.writebacks::total              704                       # number of writebacks
system.cpu3.dcache.ReadReq_mshr_hits::switch_cpus3.data         3351                       # number of ReadReq MSHR hits
system.cpu3.dcache.ReadReq_mshr_hits::total         3351                       # number of ReadReq MSHR hits
system.cpu3.dcache.demand_mshr_hits::switch_cpus3.data         3351                       # number of demand (read+write) MSHR hits
system.cpu3.dcache.demand_mshr_hits::total         3351                       # number of demand (read+write) MSHR hits
system.cpu3.dcache.overall_mshr_hits::switch_cpus3.data         3351                       # number of overall MSHR hits
system.cpu3.dcache.overall_mshr_hits::total         3351                       # number of overall MSHR hits
system.cpu3.dcache.ReadReq_mshr_misses::switch_cpus3.data         3123                       # number of ReadReq MSHR misses
system.cpu3.dcache.ReadReq_mshr_misses::total         3123                       # number of ReadReq MSHR misses
system.cpu3.dcache.demand_mshr_misses::switch_cpus3.data         3123                       # number of demand (read+write) MSHR misses
system.cpu3.dcache.demand_mshr_misses::total         3123                       # number of demand (read+write) MSHR misses
system.cpu3.dcache.overall_mshr_misses::switch_cpus3.data         3123                       # number of overall MSHR misses
system.cpu3.dcache.overall_mshr_misses::total         3123                       # number of overall MSHR misses
system.cpu3.dcache.ReadReq_mshr_miss_latency::switch_cpus3.data     78613789                       # number of ReadReq MSHR miss cycles
system.cpu3.dcache.ReadReq_mshr_miss_latency::total     78613789                       # number of ReadReq MSHR miss cycles
system.cpu3.dcache.demand_mshr_miss_latency::switch_cpus3.data     78613789                       # number of demand (read+write) MSHR miss cycles
system.cpu3.dcache.demand_mshr_miss_latency::total     78613789                       # number of demand (read+write) MSHR miss cycles
system.cpu3.dcache.overall_mshr_miss_latency::switch_cpus3.data     78613789                       # number of overall MSHR miss cycles
system.cpu3.dcache.overall_mshr_miss_latency::total     78613789                       # number of overall MSHR miss cycles
system.cpu3.dcache.ReadReq_mshr_miss_rate::switch_cpus3.data     0.003173                       # mshr miss rate for ReadReq accesses
system.cpu3.dcache.ReadReq_mshr_miss_rate::total     0.003173                       # mshr miss rate for ReadReq accesses
system.cpu3.dcache.demand_mshr_miss_rate::switch_cpus3.data     0.001893                       # mshr miss rate for demand accesses
system.cpu3.dcache.demand_mshr_miss_rate::total     0.001893                       # mshr miss rate for demand accesses
system.cpu3.dcache.overall_mshr_miss_rate::switch_cpus3.data     0.001893                       # mshr miss rate for overall accesses
system.cpu3.dcache.overall_mshr_miss_rate::total     0.001893                       # mshr miss rate for overall accesses
system.cpu3.dcache.ReadReq_avg_mshr_miss_latency::switch_cpus3.data 25172.522895                       # average ReadReq mshr miss latency
system.cpu3.dcache.ReadReq_avg_mshr_miss_latency::total 25172.522895                       # average ReadReq mshr miss latency
system.cpu3.dcache.demand_avg_mshr_miss_latency::switch_cpus3.data 25172.522895                       # average overall mshr miss latency
system.cpu3.dcache.demand_avg_mshr_miss_latency::total 25172.522895                       # average overall mshr miss latency
system.cpu3.dcache.overall_avg_mshr_miss_latency::switch_cpus3.data 25172.522895                       # average overall mshr miss latency
system.cpu3.dcache.overall_avg_mshr_miss_latency::total 25172.522895                       # average overall mshr miss latency
system.cpu3.dcache.no_allocate_misses               0                       # Number of misses that were no-allocate

---------- End Simulation Statistics   ----------
