
---------- Begin Simulation Statistics ----------
final_tick                               5000000000000                       # Number of ticks from beginning of simulation (restored from checkpoints and never reset)
host_inst_rate                                 630288                       # Simulator instruction rate (inst/s)
host_mem_usage                              134379848                       # Number of bytes of host memory used
host_op_rate                                   709506                       # Simulator op (including micro ops) rate (op/s)
host_seconds                                  7883.06                       # Real time elapsed on the host
host_tick_rate                              515086180                       # Simulator tick rate (ticks/s)
sim_freq                                 1000000000000                       # Frequency of simulated ticks
sim_insts                                  4968602303                       # Number of instructions simulated
sim_ops                                    5593079566                       # Number of ops (including micro ops) simulated
sim_seconds                                  4.060457                       # Number of seconds simulated
sim_ticks                                4060456786673                       # Number of ticks simulated
system.cpu.committedInsts                           0                       # Number of instructions committed
system.cpu.committedOps                             0                       # Number of ops (including micro ops) committed
system.cpu.dtb.accesses                             0                       # DTB accesses
system.cpu.dtb.align_faults                         0                       # Number of TLB faults due to alignment restrictions
system.cpu.dtb.domain_faults                        0                       # Number of TLB faults due to domain restrictions
system.cpu.dtb.flush_entries                        0                       # Number of entries that have been flushed from TLB
system.cpu.dtb.flush_tlb                            0                       # Number of times complete TLB was flushed
system.cpu.dtb.flush_tlb_asid                       0                       # Number of times TLB was flushed by ASID
system.cpu.dtb.flush_tlb_mva                        0                       # Number of times TLB was flushed by MVA
system.cpu.dtb.flush_tlb_mva_asid                   0                       # Number of times TLB was flushed by MVA & ASID
system.cpu.dtb.hits                                 0                       # DTB hits
system.cpu.dtb.inst_accesses                        0                       # ITB inst accesses
system.cpu.dtb.inst_hits                            0                       # ITB inst hits
system.cpu.dtb.inst_misses                          0                       # ITB inst misses
system.cpu.dtb.misses                               0                       # DTB misses
system.cpu.dtb.perms_faults                         0                       # Number of TLB faults due to permissions restrictions
system.cpu.dtb.prefetch_faults                      0                       # Number of TLB faults due to prefetch
system.cpu.dtb.read_accesses                        0                       # DTB read accesses
system.cpu.dtb.read_hits                            0                       # DTB read hits
system.cpu.dtb.read_misses                          0                       # DTB read misses
system.cpu.dtb.stage2_mmu.stage2_tlb.accesses            0                       # DTB accesses
system.cpu.dtb.stage2_mmu.stage2_tlb.align_faults            0                       # Number of TLB faults due to alignment restrictions
system.cpu.dtb.stage2_mmu.stage2_tlb.domain_faults            0                       # Number of TLB faults due to domain restrictions
system.cpu.dtb.stage2_mmu.stage2_tlb.flush_entries            0                       # Number of entries that have been flushed from TLB
system.cpu.dtb.stage2_mmu.stage2_tlb.flush_tlb            0                       # Number of times complete TLB was flushed
system.cpu.dtb.stage2_mmu.stage2_tlb.flush_tlb_asid            0                       # Number of times TLB was flushed by ASID
system.cpu.dtb.stage2_mmu.stage2_tlb.flush_tlb_mva            0                       # Number of times TLB was flushed by MVA
system.cpu.dtb.stage2_mmu.stage2_tlb.flush_tlb_mva_asid            0                       # Number of times TLB was flushed by MVA & ASID
system.cpu.dtb.stage2_mmu.stage2_tlb.hits            0                       # DTB hits
system.cpu.dtb.stage2_mmu.stage2_tlb.inst_accesses            0                       # ITB inst accesses
system.cpu.dtb.stage2_mmu.stage2_tlb.inst_hits            0                       # ITB inst hits
system.cpu.dtb.stage2_mmu.stage2_tlb.inst_misses            0                       # ITB inst misses
system.cpu.dtb.stage2_mmu.stage2_tlb.misses            0                       # DTB misses
system.cpu.dtb.stage2_mmu.stage2_tlb.perms_faults            0                       # Number of TLB faults due to permissions restrictions
system.cpu.dtb.stage2_mmu.stage2_tlb.prefetch_faults            0                       # Number of TLB faults due to prefetch
system.cpu.dtb.stage2_mmu.stage2_tlb.read_accesses            0                       # DTB read accesses
system.cpu.dtb.stage2_mmu.stage2_tlb.read_hits            0                       # DTB read hits
system.cpu.dtb.stage2_mmu.stage2_tlb.read_misses            0                       # DTB read misses
system.cpu.dtb.stage2_mmu.stage2_tlb.walker.walkRequestOrigin_Requested::Data            0                       # Table walker requests started/completed, data/inst
system.cpu.dtb.stage2_mmu.stage2_tlb.walker.walkRequestOrigin_Requested::Inst            0                       # Table walker requests started/completed, data/inst
system.cpu.dtb.stage2_mmu.stage2_tlb.walker.walkRequestOrigin_Requested::total            0                       # Table walker requests started/completed, data/inst
system.cpu.dtb.stage2_mmu.stage2_tlb.walker.walkRequestOrigin_Completed::Data            0                       # Table walker requests started/completed, data/inst
system.cpu.dtb.stage2_mmu.stage2_tlb.walker.walkRequestOrigin_Completed::Inst            0                       # Table walker requests started/completed, data/inst
system.cpu.dtb.stage2_mmu.stage2_tlb.walker.walkRequestOrigin_Completed::total            0                       # Table walker requests started/completed, data/inst
system.cpu.dtb.stage2_mmu.stage2_tlb.walker.walkRequestOrigin::total            0                       # Table walker requests started/completed, data/inst
system.cpu.dtb.stage2_mmu.stage2_tlb.walker.walks            0                       # Table walker walks requested
system.cpu.dtb.stage2_mmu.stage2_tlb.write_accesses            0                       # DTB write accesses
system.cpu.dtb.stage2_mmu.stage2_tlb.write_hits            0                       # DTB write hits
system.cpu.dtb.stage2_mmu.stage2_tlb.write_misses            0                       # DTB write misses
system.cpu.dtb.walker.walkRequestOrigin_Requested::Data            0                       # Table walker requests started/completed, data/inst
system.cpu.dtb.walker.walkRequestOrigin_Requested::Inst            0                       # Table walker requests started/completed, data/inst
system.cpu.dtb.walker.walkRequestOrigin_Requested::total            0                       # Table walker requests started/completed, data/inst
system.cpu.dtb.walker.walkRequestOrigin_Completed::Data            0                       # Table walker requests started/completed, data/inst
system.cpu.dtb.walker.walkRequestOrigin_Completed::Inst            0                       # Table walker requests started/completed, data/inst
system.cpu.dtb.walker.walkRequestOrigin_Completed::total            0                       # Table walker requests started/completed, data/inst
system.cpu.dtb.walker.walkRequestOrigin::total            0                       # Table walker requests started/completed, data/inst
system.cpu.dtb.walker.walks                         0                       # Table walker walks requested
system.cpu.dtb.write_accesses                       0                       # DTB write accesses
system.cpu.dtb.write_hits                           0                       # DTB write hits
system.cpu.dtb.write_misses                         0                       # DTB write misses
system.cpu.idle_fraction                            0                       # Percentage of idle cycles
system.cpu.itb.accesses                             0                       # DTB accesses
system.cpu.itb.align_faults                         0                       # Number of TLB faults due to alignment restrictions
system.cpu.itb.domain_faults                        0                       # Number of TLB faults due to domain restrictions
system.cpu.itb.flush_entries                        0                       # Number of entries that have been flushed from TLB
system.cpu.itb.flush_tlb                            0                       # Number of times complete TLB was flushed
system.cpu.itb.flush_tlb_asid                       0                       # Number of times TLB was flushed by ASID
system.cpu.itb.flush_tlb_mva                        0                       # Number of times TLB was flushed by MVA
system.cpu.itb.flush_tlb_mva_asid                   0                       # Number of times TLB was flushed by MVA & ASID
system.cpu.itb.hits                                 0                       # DTB hits
system.cpu.itb.inst_accesses                        0                       # ITB inst accesses
system.cpu.itb.inst_hits                            0                       # ITB inst hits
system.cpu.itb.inst_misses                          0                       # ITB inst misses
system.cpu.itb.misses                               0                       # DTB misses
system.cpu.itb.perms_faults                         0                       # Number of TLB faults due to permissions restrictions
system.cpu.itb.prefetch_faults                      0                       # Number of TLB faults due to prefetch
system.cpu.itb.read_accesses                        0                       # DTB read accesses
system.cpu.itb.read_hits                            0                       # DTB read hits
system.cpu.itb.read_misses                          0                       # DTB read misses
system.cpu.itb.stage2_mmu.stage2_tlb.accesses            0                       # DTB accesses
system.cpu.itb.stage2_mmu.stage2_tlb.align_faults            0                       # Number of TLB faults due to alignment restrictions
system.cpu.itb.stage2_mmu.stage2_tlb.domain_faults            0                       # Number of TLB faults due to domain restrictions
system.cpu.itb.stage2_mmu.stage2_tlb.flush_entries            0                       # Number of entries that have been flushed from TLB
system.cpu.itb.stage2_mmu.stage2_tlb.flush_tlb            0                       # Number of times complete TLB was flushed
system.cpu.itb.stage2_mmu.stage2_tlb.flush_tlb_asid            0                       # Number of times TLB was flushed by ASID
system.cpu.itb.stage2_mmu.stage2_tlb.flush_tlb_mva            0                       # Number of times TLB was flushed by MVA
system.cpu.itb.stage2_mmu.stage2_tlb.flush_tlb_mva_asid            0                       # Number of times TLB was flushed by MVA & ASID
system.cpu.itb.stage2_mmu.stage2_tlb.hits            0                       # DTB hits
system.cpu.itb.stage2_mmu.stage2_tlb.inst_accesses            0                       # ITB inst accesses
system.cpu.itb.stage2_mmu.stage2_tlb.inst_hits            0                       # ITB inst hits
system.cpu.itb.stage2_mmu.stage2_tlb.inst_misses            0                       # ITB inst misses
system.cpu.itb.stage2_mmu.stage2_tlb.misses            0                       # DTB misses
system.cpu.itb.stage2_mmu.stage2_tlb.perms_faults            0                       # Number of TLB faults due to permissions restrictions
system.cpu.itb.stage2_mmu.stage2_tlb.prefetch_faults            0                       # Number of TLB faults due to prefetch
system.cpu.itb.stage2_mmu.stage2_tlb.read_accesses            0                       # DTB read accesses
system.cpu.itb.stage2_mmu.stage2_tlb.read_hits            0                       # DTB read hits
system.cpu.itb.stage2_mmu.stage2_tlb.read_misses            0                       # DTB read misses
system.cpu.itb.stage2_mmu.stage2_tlb.walker.walkRequestOrigin_Requested::Data            0                       # Table walker requests started/completed, data/inst
system.cpu.itb.stage2_mmu.stage2_tlb.walker.walkRequestOrigin_Requested::Inst            0                       # Table walker requests started/completed, data/inst
system.cpu.itb.stage2_mmu.stage2_tlb.walker.walkRequestOrigin_Requested::total            0                       # Table walker requests started/completed, data/inst
system.cpu.itb.stage2_mmu.stage2_tlb.walker.walkRequestOrigin_Completed::Data            0                       # Table walker requests started/completed, data/inst
system.cpu.itb.stage2_mmu.stage2_tlb.walker.walkRequestOrigin_Completed::Inst            0                       # Table walker requests started/completed, data/inst
system.cpu.itb.stage2_mmu.stage2_tlb.walker.walkRequestOrigin_Completed::total            0                       # Table walker requests started/completed, data/inst
system.cpu.itb.stage2_mmu.stage2_tlb.walker.walkRequestOrigin::total            0                       # Table walker requests started/completed, data/inst
system.cpu.itb.stage2_mmu.stage2_tlb.walker.walks            0                       # Table walker walks requested
system.cpu.itb.stage2_mmu.stage2_tlb.write_accesses            0                       # DTB write accesses
system.cpu.itb.stage2_mmu.stage2_tlb.write_hits            0                       # DTB write hits
system.cpu.itb.stage2_mmu.stage2_tlb.write_misses            0                       # DTB write misses
system.cpu.itb.walker.walkRequestOrigin_Requested::Data            0                       # Table walker requests started/completed, data/inst
system.cpu.itb.walker.walkRequestOrigin_Requested::Inst            0                       # Table walker requests started/completed, data/inst
system.cpu.itb.walker.walkRequestOrigin_Requested::total            0                       # Table walker requests started/completed, data/inst
system.cpu.itb.walker.walkRequestOrigin_Completed::Data            0                       # Table walker requests started/completed, data/inst
system.cpu.itb.walker.walkRequestOrigin_Completed::Inst            0                       # Table walker requests started/completed, data/inst
system.cpu.itb.walker.walkRequestOrigin_Completed::total            0                       # Table walker requests started/completed, data/inst
system.cpu.itb.walker.walkRequestOrigin::total            0                       # Table walker requests started/completed, data/inst
system.cpu.itb.walker.walks                         0                       # Table walker walks requested
system.cpu.itb.write_accesses                       0                       # DTB write accesses
system.cpu.itb.write_hits                           0                       # DTB write hits
system.cpu.itb.write_misses                         0                       # DTB write misses
system.cpu.not_idle_fraction                        1                       # Percentage of non-idle cycles
system.cpu.numCycles                                0                       # number of cpu cycles simulated
system.cpu.numWorkItemsCompleted                    0                       # number of work items this cpu completed
system.cpu.numWorkItemsStarted                      0                       # number of work items this cpu started
system.cpu.num_busy_cycles                          0                       # Number of busy cycles
system.cpu.num_conditional_control_insts            0                       # number of instructions that are conditional controls
system.cpu.num_fp_alu_accesses                      0                       # Number of float alu accesses
system.cpu.num_fp_insts                             0                       # number of float instructions
system.cpu.num_fp_register_reads                    0                       # number of times the floating registers were read
system.cpu.num_fp_register_writes                   0                       # number of times the floating registers were written
system.cpu.num_func_calls                           0                       # number of times a function call or return occured
system.cpu.num_idle_cycles                          0                       # Number of idle cycles
system.cpu.num_int_alu_accesses                     0                       # Number of integer alu accesses
system.cpu.num_int_insts                            0                       # number of integer instructions
system.cpu.num_int_register_reads                   0                       # number of times the integer registers were read
system.cpu.num_int_register_writes                  0                       # number of times the integer registers were written
system.cpu.num_load_insts                           0                       # Number of load instructions
system.cpu.num_mem_refs                             0                       # number of memory refs
system.cpu.num_store_insts                          0                       # Number of store instructions
system.cpu.num_vec_alu_accesses                     0                       # Number of vector alu accesses
system.cpu.num_vec_insts                            0                       # number of vector instructions
system.cpu.num_vec_register_reads                   0                       # number of times the vector registers were read
system.cpu.num_vec_register_writes                  0                       # number of times the vector registers were written
system.cpu.op_class::No_OpClass                     0                       # Class of executed instruction
system.cpu.op_class::IntAlu                         0                       # Class of executed instruction
system.cpu.op_class::IntMult                        0                       # Class of executed instruction
system.cpu.op_class::IntDiv                         0                       # Class of executed instruction
system.cpu.op_class::FloatAdd                       0                       # Class of executed instruction
system.cpu.op_class::FloatCmp                       0                       # Class of executed instruction
system.cpu.op_class::FloatCvt                       0                       # Class of executed instruction
system.cpu.op_class::FloatMult                      0                       # Class of executed instruction
system.cpu.op_class::FloatMultAcc                   0                       # Class of executed instruction
system.cpu.op_class::FloatDiv                       0                       # Class of executed instruction
system.cpu.op_class::FloatMisc                      0                       # Class of executed instruction
system.cpu.op_class::FloatSqrt                      0                       # Class of executed instruction
system.cpu.op_class::SimdAdd                        0                       # Class of executed instruction
system.cpu.op_class::SimdAddAcc                     0                       # Class of executed instruction
system.cpu.op_class::SimdAlu                        0                       # Class of executed instruction
system.cpu.op_class::SimdCmp                        0                       # Class of executed instruction
system.cpu.op_class::SimdCvt                        0                       # Class of executed instruction
system.cpu.op_class::SimdMisc                       0                       # Class of executed instruction
system.cpu.op_class::SimdMult                       0                       # Class of executed instruction
system.cpu.op_class::SimdMultAcc                    0                       # Class of executed instruction
system.cpu.op_class::SimdShift                      0                       # Class of executed instruction
system.cpu.op_class::SimdShiftAcc                   0                       # Class of executed instruction
system.cpu.op_class::SimdDiv                        0                       # Class of executed instruction
system.cpu.op_class::SimdSqrt                       0                       # Class of executed instruction
system.cpu.op_class::SimdFloatAdd                   0                       # Class of executed instruction
system.cpu.op_class::SimdFloatAlu                   0                       # Class of executed instruction
system.cpu.op_class::SimdFloatCmp                   0                       # Class of executed instruction
system.cpu.op_class::SimdFloatCvt                   0                       # Class of executed instruction
system.cpu.op_class::SimdFloatDiv                   0                       # Class of executed instruction
system.cpu.op_class::SimdFloatMisc                  0                       # Class of executed instruction
system.cpu.op_class::SimdFloatMult                  0                       # Class of executed instruction
system.cpu.op_class::SimdFloatMultAcc               0                       # Class of executed instruction
system.cpu.op_class::SimdFloatSqrt                  0                       # Class of executed instruction
system.cpu.op_class::SimdReduceAdd                  0                       # Class of executed instruction
system.cpu.op_class::SimdReduceAlu                  0                       # Class of executed instruction
system.cpu.op_class::SimdReduceCmp                  0                       # Class of executed instruction
system.cpu.op_class::SimdFloatReduceAdd             0                       # Class of executed instruction
system.cpu.op_class::SimdFloatReduceCmp             0                       # Class of executed instruction
system.cpu.op_class::SimdAes                        0                       # Class of executed instruction
system.cpu.op_class::SimdAesMix                     0                       # Class of executed instruction
system.cpu.op_class::SimdSha1Hash                   0                       # Class of executed instruction
system.cpu.op_class::SimdSha1Hash2                  0                       # Class of executed instruction
system.cpu.op_class::SimdSha256Hash                 0                       # Class of executed instruction
system.cpu.op_class::SimdSha256Hash2                0                       # Class of executed instruction
system.cpu.op_class::SimdShaSigma2                  0                       # Class of executed instruction
system.cpu.op_class::SimdShaSigma3                  0                       # Class of executed instruction
system.cpu.op_class::SimdPredAlu                    0                       # Class of executed instruction
system.cpu.op_class::MemRead                        0                       # Class of executed instruction
system.cpu.op_class::MemWrite                       0                       # Class of executed instruction
system.cpu.op_class::FloatMemRead                   0                       # Class of executed instruction
system.cpu.op_class::FloatMemWrite                  0                       # Class of executed instruction
system.cpu.op_class::IprAccess                      0                       # Class of executed instruction
system.cpu.op_class::InstPrefetch                   0                       # Class of executed instruction
system.cpu.op_class::total                          0                       # Class of executed instruction
system.cpu.workload.numSyscalls                    56                       # Number of system calls
system.membus.snoop_filter.hit_multi_requests            0                       # Number of requests hitting in the snoop filter with multiple (>1) holders of the requested data.
system.membus.snoop_filter.hit_multi_snoops            0                       # Number of snoops hitting in the snoop filter with multiple (>1) holders of the requested data.
system.membus.snoop_filter.hit_single_requests      6844716                       # Number of requests hitting in the snoop filter with a single holder of the requested data.
system.membus.snoop_filter.hit_single_snoops            0                       # Number of snoops hitting in the snoop filter with a single holder of the requested data.
system.membus.snoop_filter.tot_requests      13689439                       # Total number of requests made to the snoop filter.
system.membus.snoop_filter.tot_snoops               0                       # Total number of snoops made to the snoop filter.
system.switch_cpus.Branches                 486236369                       # Number of branches fetched
system.switch_cpus.committedInsts          2968602302                       # Number of instructions committed
system.switch_cpus.committedOps            3342078817                       # Number of ops (including micro ops) committed
system.switch_cpus.dtb.accesses                     0                       # DTB accesses
system.switch_cpus.dtb.align_faults                 0                       # Number of TLB faults due to alignment restrictions
system.switch_cpus.dtb.domain_faults                0                       # Number of TLB faults due to domain restrictions
system.switch_cpus.dtb.flush_entries                0                       # Number of entries that have been flushed from TLB
system.switch_cpus.dtb.flush_tlb                    0                       # Number of times complete TLB was flushed
system.switch_cpus.dtb.flush_tlb_asid               0                       # Number of times TLB was flushed by ASID
system.switch_cpus.dtb.flush_tlb_mva                0                       # Number of times TLB was flushed by MVA
system.switch_cpus.dtb.flush_tlb_mva_asid            0                       # Number of times TLB was flushed by MVA & ASID
system.switch_cpus.dtb.hits                         0                       # DTB hits
system.switch_cpus.dtb.inst_accesses                0                       # ITB inst accesses
system.switch_cpus.dtb.inst_hits                    0                       # ITB inst hits
system.switch_cpus.dtb.inst_misses                  0                       # ITB inst misses
system.switch_cpus.dtb.misses                       0                       # DTB misses
system.switch_cpus.dtb.perms_faults                 0                       # Number of TLB faults due to permissions restrictions
system.switch_cpus.dtb.prefetch_faults              0                       # Number of TLB faults due to prefetch
system.switch_cpus.dtb.read_accesses                0                       # DTB read accesses
system.switch_cpus.dtb.read_hits                    0                       # DTB read hits
system.switch_cpus.dtb.read_misses                  0                       # DTB read misses
system.switch_cpus.dtb.stage2_mmu.stage2_tlb.accesses            0                       # DTB accesses
system.switch_cpus.dtb.stage2_mmu.stage2_tlb.align_faults            0                       # Number of TLB faults due to alignment restrictions
system.switch_cpus.dtb.stage2_mmu.stage2_tlb.domain_faults            0                       # Number of TLB faults due to domain restrictions
system.switch_cpus.dtb.stage2_mmu.stage2_tlb.flush_entries            0                       # Number of entries that have been flushed from TLB
system.switch_cpus.dtb.stage2_mmu.stage2_tlb.flush_tlb            0                       # Number of times complete TLB was flushed
system.switch_cpus.dtb.stage2_mmu.stage2_tlb.flush_tlb_asid            0                       # Number of times TLB was flushed by ASID
system.switch_cpus.dtb.stage2_mmu.stage2_tlb.flush_tlb_mva            0                       # Number of times TLB was flushed by MVA
system.switch_cpus.dtb.stage2_mmu.stage2_tlb.flush_tlb_mva_asid            0                       # Number of times TLB was flushed by MVA & ASID
system.switch_cpus.dtb.stage2_mmu.stage2_tlb.hits            0                       # DTB hits
system.switch_cpus.dtb.stage2_mmu.stage2_tlb.inst_accesses            0                       # ITB inst accesses
system.switch_cpus.dtb.stage2_mmu.stage2_tlb.inst_hits            0                       # ITB inst hits
system.switch_cpus.dtb.stage2_mmu.stage2_tlb.inst_misses            0                       # ITB inst misses
system.switch_cpus.dtb.stage2_mmu.stage2_tlb.misses            0                       # DTB misses
system.switch_cpus.dtb.stage2_mmu.stage2_tlb.perms_faults            0                       # Number of TLB faults due to permissions restrictions
system.switch_cpus.dtb.stage2_mmu.stage2_tlb.prefetch_faults            0                       # Number of TLB faults due to prefetch
system.switch_cpus.dtb.stage2_mmu.stage2_tlb.read_accesses            0                       # DTB read accesses
system.switch_cpus.dtb.stage2_mmu.stage2_tlb.read_hits            0                       # DTB read hits
system.switch_cpus.dtb.stage2_mmu.stage2_tlb.read_misses            0                       # DTB read misses
system.switch_cpus.dtb.stage2_mmu.stage2_tlb.walker.walkRequestOrigin_Requested::Data            0                       # Table walker requests started/completed, data/inst
system.switch_cpus.dtb.stage2_mmu.stage2_tlb.walker.walkRequestOrigin_Requested::Inst            0                       # Table walker requests started/completed, data/inst
system.switch_cpus.dtb.stage2_mmu.stage2_tlb.walker.walkRequestOrigin_Requested::total            0                       # Table walker requests started/completed, data/inst
system.switch_cpus.dtb.stage2_mmu.stage2_tlb.walker.walkRequestOrigin_Completed::Data            0                       # Table walker requests started/completed, data/inst
system.switch_cpus.dtb.stage2_mmu.stage2_tlb.walker.walkRequestOrigin_Completed::Inst            0                       # Table walker requests started/completed, data/inst
system.switch_cpus.dtb.stage2_mmu.stage2_tlb.walker.walkRequestOrigin_Completed::total            0                       # Table walker requests started/completed, data/inst
system.switch_cpus.dtb.stage2_mmu.stage2_tlb.walker.walkRequestOrigin::total            0                       # Table walker requests started/completed, data/inst
system.switch_cpus.dtb.stage2_mmu.stage2_tlb.walker.walks            0                       # Table walker walks requested
system.switch_cpus.dtb.stage2_mmu.stage2_tlb.write_accesses            0                       # DTB write accesses
system.switch_cpus.dtb.stage2_mmu.stage2_tlb.write_hits            0                       # DTB write hits
system.switch_cpus.dtb.stage2_mmu.stage2_tlb.write_misses            0                       # DTB write misses
system.switch_cpus.dtb.walker.walkRequestOrigin_Requested::Data            0                       # Table walker requests started/completed, data/inst
system.switch_cpus.dtb.walker.walkRequestOrigin_Requested::Inst            0                       # Table walker requests started/completed, data/inst
system.switch_cpus.dtb.walker.walkRequestOrigin_Requested::total            0                       # Table walker requests started/completed, data/inst
system.switch_cpus.dtb.walker.walkRequestOrigin_Completed::Data            0                       # Table walker requests started/completed, data/inst
system.switch_cpus.dtb.walker.walkRequestOrigin_Completed::Inst            0                       # Table walker requests started/completed, data/inst
system.switch_cpus.dtb.walker.walkRequestOrigin_Completed::total            0                       # Table walker requests started/completed, data/inst
system.switch_cpus.dtb.walker.walkRequestOrigin::total            0                       # Table walker requests started/completed, data/inst
system.switch_cpus.dtb.walker.walks                 0                       # Table walker walks requested
system.switch_cpus.dtb.write_accesses               0                       # DTB write accesses
system.switch_cpus.dtb.write_hits                   0                       # DTB write hits
system.switch_cpus.dtb.write_misses                 0                       # DTB write misses
system.switch_cpus.idle_fraction                    0                       # Percentage of idle cycles
system.switch_cpus.itb.accesses                     0                       # DTB accesses
system.switch_cpus.itb.align_faults                 0                       # Number of TLB faults due to alignment restrictions
system.switch_cpus.itb.domain_faults                0                       # Number of TLB faults due to domain restrictions
system.switch_cpus.itb.flush_entries                0                       # Number of entries that have been flushed from TLB
system.switch_cpus.itb.flush_tlb                    0                       # Number of times complete TLB was flushed
system.switch_cpus.itb.flush_tlb_asid               0                       # Number of times TLB was flushed by ASID
system.switch_cpus.itb.flush_tlb_mva                0                       # Number of times TLB was flushed by MVA
system.switch_cpus.itb.flush_tlb_mva_asid            0                       # Number of times TLB was flushed by MVA & ASID
system.switch_cpus.itb.hits                         0                       # DTB hits
system.switch_cpus.itb.inst_accesses                0                       # ITB inst accesses
system.switch_cpus.itb.inst_hits                    0                       # ITB inst hits
system.switch_cpus.itb.inst_misses                  0                       # ITB inst misses
system.switch_cpus.itb.misses                       0                       # DTB misses
system.switch_cpus.itb.perms_faults                 0                       # Number of TLB faults due to permissions restrictions
system.switch_cpus.itb.prefetch_faults              0                       # Number of TLB faults due to prefetch
system.switch_cpus.itb.read_accesses                0                       # DTB read accesses
system.switch_cpus.itb.read_hits                    0                       # DTB read hits
system.switch_cpus.itb.read_misses                  0                       # DTB read misses
system.switch_cpus.itb.stage2_mmu.stage2_tlb.accesses            0                       # DTB accesses
system.switch_cpus.itb.stage2_mmu.stage2_tlb.align_faults            0                       # Number of TLB faults due to alignment restrictions
system.switch_cpus.itb.stage2_mmu.stage2_tlb.domain_faults            0                       # Number of TLB faults due to domain restrictions
system.switch_cpus.itb.stage2_mmu.stage2_tlb.flush_entries            0                       # Number of entries that have been flushed from TLB
system.switch_cpus.itb.stage2_mmu.stage2_tlb.flush_tlb            0                       # Number of times complete TLB was flushed
system.switch_cpus.itb.stage2_mmu.stage2_tlb.flush_tlb_asid            0                       # Number of times TLB was flushed by ASID
system.switch_cpus.itb.stage2_mmu.stage2_tlb.flush_tlb_mva            0                       # Number of times TLB was flushed by MVA
system.switch_cpus.itb.stage2_mmu.stage2_tlb.flush_tlb_mva_asid            0                       # Number of times TLB was flushed by MVA & ASID
system.switch_cpus.itb.stage2_mmu.stage2_tlb.hits            0                       # DTB hits
system.switch_cpus.itb.stage2_mmu.stage2_tlb.inst_accesses            0                       # ITB inst accesses
system.switch_cpus.itb.stage2_mmu.stage2_tlb.inst_hits            0                       # ITB inst hits
system.switch_cpus.itb.stage2_mmu.stage2_tlb.inst_misses            0                       # ITB inst misses
system.switch_cpus.itb.stage2_mmu.stage2_tlb.misses            0                       # DTB misses
system.switch_cpus.itb.stage2_mmu.stage2_tlb.perms_faults            0                       # Number of TLB faults due to permissions restrictions
system.switch_cpus.itb.stage2_mmu.stage2_tlb.prefetch_faults            0                       # Number of TLB faults due to prefetch
system.switch_cpus.itb.stage2_mmu.stage2_tlb.read_accesses            0                       # DTB read accesses
system.switch_cpus.itb.stage2_mmu.stage2_tlb.read_hits            0                       # DTB read hits
system.switch_cpus.itb.stage2_mmu.stage2_tlb.read_misses            0                       # DTB read misses
system.switch_cpus.itb.stage2_mmu.stage2_tlb.walker.walkRequestOrigin_Requested::Data            0                       # Table walker requests started/completed, data/inst
system.switch_cpus.itb.stage2_mmu.stage2_tlb.walker.walkRequestOrigin_Requested::Inst            0                       # Table walker requests started/completed, data/inst
system.switch_cpus.itb.stage2_mmu.stage2_tlb.walker.walkRequestOrigin_Requested::total            0                       # Table walker requests started/completed, data/inst
system.switch_cpus.itb.stage2_mmu.stage2_tlb.walker.walkRequestOrigin_Completed::Data            0                       # Table walker requests started/completed, data/inst
system.switch_cpus.itb.stage2_mmu.stage2_tlb.walker.walkRequestOrigin_Completed::Inst            0                       # Table walker requests started/completed, data/inst
system.switch_cpus.itb.stage2_mmu.stage2_tlb.walker.walkRequestOrigin_Completed::total            0                       # Table walker requests started/completed, data/inst
system.switch_cpus.itb.stage2_mmu.stage2_tlb.walker.walkRequestOrigin::total            0                       # Table walker requests started/completed, data/inst
system.switch_cpus.itb.stage2_mmu.stage2_tlb.walker.walks            0                       # Table walker walks requested
system.switch_cpus.itb.stage2_mmu.stage2_tlb.write_accesses            0                       # DTB write accesses
system.switch_cpus.itb.stage2_mmu.stage2_tlb.write_hits            0                       # DTB write hits
system.switch_cpus.itb.stage2_mmu.stage2_tlb.write_misses            0                       # DTB write misses
system.switch_cpus.itb.walker.walkRequestOrigin_Requested::Data            0                       # Table walker requests started/completed, data/inst
system.switch_cpus.itb.walker.walkRequestOrigin_Requested::Inst            0                       # Table walker requests started/completed, data/inst
system.switch_cpus.itb.walker.walkRequestOrigin_Requested::total            0                       # Table walker requests started/completed, data/inst
system.switch_cpus.itb.walker.walkRequestOrigin_Completed::Data            0                       # Table walker requests started/completed, data/inst
system.switch_cpus.itb.walker.walkRequestOrigin_Completed::Inst            0                       # Table walker requests started/completed, data/inst
system.switch_cpus.itb.walker.walkRequestOrigin_Completed::total            0                       # Table walker requests started/completed, data/inst
system.switch_cpus.itb.walker.walkRequestOrigin::total            0                       # Table walker requests started/completed, data/inst
system.switch_cpus.itb.walker.walks                 0                       # Table walker walks requested
system.switch_cpus.itb.write_accesses               0                       # DTB write accesses
system.switch_cpus.itb.write_hits                   0                       # DTB write hits
system.switch_cpus.itb.write_misses                 0                       # DTB write misses
system.switch_cpus.not_idle_fraction                1                       # Percentage of non-idle cycles
system.switch_cpus.numCycles               9737306442                       # number of cpu cycles simulated
system.switch_cpus.numWorkItemsCompleted            0                       # number of work items this cpu completed
system.switch_cpus.numWorkItemsStarted              0                       # number of work items this cpu started
system.switch_cpus.num_busy_cycles         9737306442                       # Number of busy cycles
system.switch_cpus.num_cc_register_reads    781467402                       # number of times the CC registers were read
system.switch_cpus.num_cc_register_writes    715559886                       # number of times the CC registers were written
system.switch_cpus.num_conditional_control_insts    415899729                       # number of instructions that are conditional controls
system.switch_cpus.num_fp_alu_accesses              0                       # Number of float alu accesses
system.switch_cpus.num_fp_insts                     0                       # number of float instructions
system.switch_cpus.num_fp_register_reads            0                       # number of times the floating registers were read
system.switch_cpus.num_fp_register_writes            0                       # number of times the floating registers were written
system.switch_cpus.num_func_calls            36847826                       # number of times a function call or return occured
system.switch_cpus.num_idle_cycles                  0                       # Number of idle cycles
system.switch_cpus.num_int_alu_accesses    3077393881                       # Number of integer alu accesses
system.switch_cpus.num_int_insts           3077393881                       # number of integer instructions
system.switch_cpus.num_int_register_reads   4452811564                       # number of times the integer registers were read
system.switch_cpus.num_int_register_writes   2606965528                       # number of times the integer registers were written
system.switch_cpus.num_load_insts           748049947                       # Number of load instructions
system.switch_cpus.num_mem_refs            1180696401                       # number of memory refs
system.switch_cpus.num_store_insts          432646454                       # Number of store instructions
system.switch_cpus.num_vec_alu_accesses      56640610                       # Number of vector alu accesses
system.switch_cpus.num_vec_insts             56640610                       # number of vector instructions
system.switch_cpus.num_vec_register_reads     37760388                       # number of times the vector registers were read
system.switch_cpus.num_vec_register_writes     18880222                       # number of times the vector registers were written
system.switch_cpus.op_class::No_OpClass             0      0.00%      0.00% # Class of executed instruction
system.switch_cpus.op_class::IntAlu        1970985284     58.97%     58.97% # Class of executed instruction
system.switch_cpus.op_class::IntMult        186735711      5.59%     64.56% # Class of executed instruction
system.switch_cpus.op_class::IntDiv           3661477      0.11%     64.67% # Class of executed instruction
system.switch_cpus.op_class::FloatAdd               0      0.00%     64.67% # Class of executed instruction
system.switch_cpus.op_class::FloatCmp               0      0.00%     64.67% # Class of executed instruction
system.switch_cpus.op_class::FloatCvt               0      0.00%     64.67% # Class of executed instruction
system.switch_cpus.op_class::FloatMult              0      0.00%     64.67% # Class of executed instruction
system.switch_cpus.op_class::FloatMultAcc            0      0.00%     64.67% # Class of executed instruction
system.switch_cpus.op_class::FloatDiv               0      0.00%     64.67% # Class of executed instruction
system.switch_cpus.op_class::FloatMisc              0      0.00%     64.67% # Class of executed instruction
system.switch_cpus.op_class::FloatSqrt              0      0.00%     64.67% # Class of executed instruction
system.switch_cpus.op_class::SimdAdd                0      0.00%     64.67% # Class of executed instruction
system.switch_cpus.op_class::SimdAddAcc             0      0.00%     64.67% # Class of executed instruction
system.switch_cpus.op_class::SimdAlu                0      0.00%     64.67% # Class of executed instruction
system.switch_cpus.op_class::SimdCmp                0      0.00%     64.67% # Class of executed instruction
system.switch_cpus.op_class::SimdCvt                0      0.00%     64.67% # Class of executed instruction
system.switch_cpus.op_class::SimdMisc               0      0.00%     64.67% # Class of executed instruction
system.switch_cpus.op_class::SimdMult               0      0.00%     64.67% # Class of executed instruction
system.switch_cpus.op_class::SimdMultAcc            0      0.00%     64.67% # Class of executed instruction
system.switch_cpus.op_class::SimdShift              0      0.00%     64.67% # Class of executed instruction
system.switch_cpus.op_class::SimdShiftAcc            0      0.00%     64.67% # Class of executed instruction
system.switch_cpus.op_class::SimdDiv                0      0.00%     64.67% # Class of executed instruction
system.switch_cpus.op_class::SimdSqrt               0      0.00%     64.67% # Class of executed instruction
system.switch_cpus.op_class::SimdFloatAdd            0      0.00%     64.67% # Class of executed instruction
system.switch_cpus.op_class::SimdFloatAlu            0      0.00%     64.67% # Class of executed instruction
system.switch_cpus.op_class::SimdFloatCmp            0      0.00%     64.67% # Class of executed instruction
system.switch_cpus.op_class::SimdFloatCvt            0      0.00%     64.67% # Class of executed instruction
system.switch_cpus.op_class::SimdFloatDiv            0      0.00%     64.67% # Class of executed instruction
system.switch_cpus.op_class::SimdFloatMisc            0      0.00%     64.67% # Class of executed instruction
system.switch_cpus.op_class::SimdFloatMult            0      0.00%     64.67% # Class of executed instruction
system.switch_cpus.op_class::SimdFloatMultAcc            0      0.00%     64.67% # Class of executed instruction
system.switch_cpus.op_class::SimdFloatSqrt            0      0.00%     64.67% # Class of executed instruction
system.switch_cpus.op_class::SimdReduceAdd            0      0.00%     64.67% # Class of executed instruction
system.switch_cpus.op_class::SimdReduceAlu            0      0.00%     64.67% # Class of executed instruction
system.switch_cpus.op_class::SimdReduceCmp            0      0.00%     64.67% # Class of executed instruction
system.switch_cpus.op_class::SimdFloatReduceAdd            0      0.00%     64.67% # Class of executed instruction
system.switch_cpus.op_class::SimdFloatReduceCmp            0      0.00%     64.67% # Class of executed instruction
system.switch_cpus.op_class::SimdAes                0      0.00%     64.67% # Class of executed instruction
system.switch_cpus.op_class::SimdAesMix             0      0.00%     64.67% # Class of executed instruction
system.switch_cpus.op_class::SimdSha1Hash            0      0.00%     64.67% # Class of executed instruction
system.switch_cpus.op_class::SimdSha1Hash2            0      0.00%     64.67% # Class of executed instruction
system.switch_cpus.op_class::SimdSha256Hash            0      0.00%     64.67% # Class of executed instruction
system.switch_cpus.op_class::SimdSha256Hash2            0      0.00%     64.67% # Class of executed instruction
system.switch_cpus.op_class::SimdShaSigma2            0      0.00%     64.67% # Class of executed instruction
system.switch_cpus.op_class::SimdShaSigma3            0      0.00%     64.67% # Class of executed instruction
system.switch_cpus.op_class::SimdPredAlu            0      0.00%     64.67% # Class of executed instruction
system.switch_cpus.op_class::MemRead        748049947     22.38%     87.05% # Class of executed instruction
system.switch_cpus.op_class::MemWrite       432646454     12.95%    100.00% # Class of executed instruction
system.switch_cpus.op_class::FloatMemRead            0      0.00%    100.00% # Class of executed instruction
system.switch_cpus.op_class::FloatMemWrite            0      0.00%    100.00% # Class of executed instruction
system.switch_cpus.op_class::IprAccess              0      0.00%    100.00% # Class of executed instruction
system.switch_cpus.op_class::InstPrefetch            0      0.00%    100.00% # Class of executed instruction
system.switch_cpus.op_class::total         3342078873                       # Class of executed instruction
system.tol2bus.snoop_filter.hit_multi_requests            0                       # Number of requests hitting in the snoop filter with multiple (>1) holders of the requested data.
system.tol2bus.snoop_filter.hit_multi_snoops            0                       # Number of snoops hitting in the snoop filter with multiple (>1) holders of the requested data.
system.tol2bus.snoop_filter.hit_single_requests      6844723                       # Number of requests hitting in the snoop filter with a single holder of the requested data.
system.tol2bus.snoop_filter.hit_single_snoops      6844730                       # Number of snoops hitting in the snoop filter with a single holder of the requested data.
system.tol2bus.snoop_filter.tot_requests     13689446                       # Total number of requests made to the snoop filter.
system.tol2bus.snoop_filter.tot_snoops        6844730                       # Total number of snoops made to the snoop filter.
system.membus.pwrStateResidencyTicks::UNDEFINED 5000000000000                       # Cumulative time (in ticks) in various power states
system.membus.trans_dist::ReadResp            6526345                       # Transaction distribution
system.membus.trans_dist::WritebackDirty      2714186                       # Transaction distribution
system.membus.trans_dist::CleanEvict          4130530                       # Transaction distribution
system.membus.trans_dist::ReadExReq            318378                       # Transaction distribution
system.membus.trans_dist::ReadExResp           318378                       # Transaction distribution
system.membus.trans_dist::ReadSharedReq       6526345                       # Transaction distribution
system.membus.pkt_count_system.l2.mem_side::system.mem_ctrls0.port     10285285                       # Packet count per connected master and slave (bytes)
system.membus.pkt_count_system.l2.mem_side::system.mem_ctrls1.port     10248877                       # Packet count per connected master and slave (bytes)
system.membus.pkt_count_system.l2.mem_side::total     20534162                       # Packet count per connected master and slave (bytes)
system.membus.pkt_count::total               20534162                       # Packet count per connected master and slave (bytes)
system.membus.pkt_size_system.l2.mem_side::system.mem_ctrls0.port    613244416                       # Cumulative packet size per connected master and slave (bytes)
system.membus.pkt_size_system.l2.mem_side::system.mem_ctrls1.port    610295936                       # Cumulative packet size per connected master and slave (bytes)
system.membus.pkt_size_system.l2.mem_side::total   1223540352                       # Cumulative packet size per connected master and slave (bytes)
system.membus.pkt_size::total              1223540352                       # Cumulative packet size per connected master and slave (bytes)
system.membus.snoops                                0                       # Total snoops (count)
system.membus.snoopTraffic                          0                       # Total snoop traffic (bytes)
system.membus.snoop_fanout::samples           6844723                       # Request fanout histogram
system.membus.snoop_fanout::mean                    0                       # Request fanout histogram
system.membus.snoop_fanout::stdev                   0                       # Request fanout histogram
system.membus.snoop_fanout::underflows              0      0.00%      0.00% # Request fanout histogram
system.membus.snoop_fanout::0                 6844723    100.00%    100.00% # Request fanout histogram
system.membus.snoop_fanout::1                       0      0.00%    100.00% # Request fanout histogram
system.membus.snoop_fanout::overflows               0      0.00%    100.00% # Request fanout histogram
system.membus.snoop_fanout::min_value               0                       # Request fanout histogram
system.membus.snoop_fanout::max_value               0                       # Request fanout histogram
system.membus.snoop_fanout::total             6844723                       # Request fanout histogram
system.membus.reqLayer0.occupancy         21070598788                       # Layer occupancy (ticks)
system.membus.reqLayer0.utilization               0.5                       # Layer utilization (%)
system.membus.reqLayer1.occupancy         20984879052                       # Layer occupancy (ticks)
system.membus.reqLayer1.utilization               0.5                       # Layer utilization (%)
system.membus.respLayer1.occupancy        64527929201                       # Layer occupancy (ticks)
system.membus.respLayer1.utilization              1.6                       # Layer utilization (%)
system.voltage_domain.voltage                       1                       # Voltage in Volts
system.switch_cpus.numPwrStateTransitions            1                       # Number of power state transitions
system.switch_cpus.pwrStateResidencyTicks::OFF 5000000000000                       # Cumulative time (in ticks) in various power states
system.switch_cpus.dtb.walker.pwrStateResidencyTicks::UNDEFINED 5000000000000                       # Cumulative time (in ticks) in various power states
system.switch_cpus.dtb.stage2_mmu.stage2_tlb.walker.pwrStateResidencyTicks::UNDEFINED 5000000000000                       # Cumulative time (in ticks) in various power states
system.switch_cpus.itb.walker.pwrStateResidencyTicks::UNDEFINED 5000000000000                       # Cumulative time (in ticks) in various power states
system.switch_cpus.itb.stage2_mmu.stage2_tlb.walker.pwrStateResidencyTicks::UNDEFINED 5000000000000                       # Cumulative time (in ticks) in various power states
system.tol2bus.pwrStateResidencyTicks::UNDEFINED 5000000000000                       # Cumulative time (in ticks) in various power states
system.tol2bus.trans_dist::ReadResp           6526345                       # Transaction distribution
system.tol2bus.trans_dist::WritebackDirty      5428379                       # Transaction distribution
system.tol2bus.trans_dist::CleanEvict        10975260                       # Transaction distribution
system.tol2bus.trans_dist::ReadExReq           318378                       # Transaction distribution
system.tol2bus.trans_dist::ReadExResp          318378                       # Transaction distribution
system.tol2bus.trans_dist::ReadSharedReq      6526345                       # Transaction distribution
system.tol2bus.pkt_count_system.cpu.dcache.mem_side::system.l2.cpu_side     20534169                       # Packet count per connected master and slave (bytes)
system.tol2bus.pkt_count::total              20534169                       # Packet count per connected master and slave (bytes)
system.tol2bus.pkt_size_system.cpu.dcache.mem_side::system.l2.cpu_side   1223541248                       # Cumulative packet size per connected master and slave (bytes)
system.tol2bus.pkt_size::total             1223541248                       # Cumulative packet size per connected master and slave (bytes)
system.tol2bus.snoops                         9558916                       # Total snoops (count)
system.tol2bus.snoopTraffic                 347415808                       # Total snoop traffic (bytes)
system.tol2bus.snoop_fanout::samples         16403639                       # Request fanout histogram
system.tol2bus.snoop_fanout::mean            0.417269                       # Request fanout histogram
system.tol2bus.snoop_fanout::stdev           0.493108                       # Request fanout histogram
system.tol2bus.snoop_fanout::underflows             0      0.00%      0.00% # Request fanout histogram
system.tol2bus.snoop_fanout::0                9558909     58.27%     58.27% # Request fanout histogram
system.tol2bus.snoop_fanout::1                6844730     41.73%    100.00% # Request fanout histogram
system.tol2bus.snoop_fanout::2                      0      0.00%    100.00% # Request fanout histogram
system.tol2bus.snoop_fanout::overflows              0      0.00%    100.00% # Request fanout histogram
system.tol2bus.snoop_fanout::min_value              0                       # Request fanout histogram
system.tol2bus.snoop_fanout::max_value              1                       # Request fanout histogram
system.tol2bus.snoop_fanout::total           16403639                       # Request fanout histogram
system.tol2bus.reqLayer0.occupancy        10235772906                       # Layer occupancy (ticks)
system.tol2bus.reqLayer0.utilization              0.3                       # Layer utilization (%)
system.tol2bus.respLayer1.occupancy       14271247455                       # Layer occupancy (ticks)
system.tol2bus.respLayer1.utilization             0.4                       # Layer utilization (%)
system.mem_ctrls0.pwrStateResidencyTicks::UNDEFINED 5000000000000                       # Cumulative time (in ticks) in various power states
system.mem_ctrls0.bytes_read::.switch_cpus.data    438839040                       # Number of bytes read from this memory
system.mem_ctrls0.bytes_read::total         438839040                       # Number of bytes read from this memory
system.mem_ctrls0.bytes_written::.writebacks    174405376                       # Number of bytes written to this memory
system.mem_ctrls0.bytes_written::total      174405376                       # Number of bytes written to this memory
system.mem_ctrls0.num_reads::.switch_cpus.data      3428430                       # Number of read requests responded to by this memory
system.mem_ctrls0.num_reads::total            3428430                       # Number of read requests responded to by this memory
system.mem_ctrls0.num_writes::.writebacks      1362542                       # Number of write requests responded to by this memory
system.mem_ctrls0.num_writes::total           1362542                       # Number of write requests responded to by this memory
system.mem_ctrls0.bw_read::.switch_cpus.data    108076274                       # Total read bandwidth from this memory (bytes/s)
system.mem_ctrls0.bw_read::total            108076274                       # Total read bandwidth from this memory (bytes/s)
system.mem_ctrls0.bw_write::.writebacks      42952157                       # Write bandwidth from this memory (bytes/s)
system.mem_ctrls0.bw_write::total            42952157                       # Write bandwidth from this memory (bytes/s)
system.mem_ctrls0.bw_total::.writebacks      42952157                       # Total bandwidth to/from this memory (bytes/s)
system.mem_ctrls0.bw_total::.switch_cpus.data    108076274                       # Total bandwidth to/from this memory (bytes/s)
system.mem_ctrls0.bw_total::total           151028431                       # Total bandwidth to/from this memory (bytes/s)
system.mem_ctrls0.avgPriority_.writebacks::samples   2725084.00                       # Average QoS priority value for accepted requests
system.mem_ctrls0.avgPriority_.switch_cpus.data::samples   6856860.00                       # Average QoS priority value for accepted requests
system.mem_ctrls0.priorityMinLatency     0.000000018750                       # per QoS priority minimum request to response latency (s)
system.mem_ctrls0.priorityMaxLatency     0.000391984974                       # per QoS priority maximum request to response latency (s)
system.mem_ctrls0.numReadWriteTurnArounds       152019                       # Number of turnarounds from READ to WRITE
system.mem_ctrls0.numWriteReadTurnArounds       152019                       # Number of turnarounds from WRITE to READ
system.mem_ctrls0.numStayReadState           12676298                       # Number of times bus staying in READ state
system.mem_ctrls0.numStayWriteState           2578122                       # Number of times bus staying in WRITE state
system.mem_ctrls0.readReqs                    3428430                       # Number of read requests accepted
system.mem_ctrls0.writeReqs                   1362542                       # Number of write requests accepted
system.mem_ctrls0.readBursts                  6856860                       # Number of DRAM read bursts, including those serviced by the write queue
system.mem_ctrls0.writeBursts                 2725084                       # Number of DRAM write bursts, including those merged in the write queue
system.mem_ctrls0.servicedByWrQ                     0                       # Number of DRAM read bursts serviced by the write queue
system.mem_ctrls0.mergedWrBursts                    0                       # Number of DRAM write bursts merged with an existing one
system.mem_ctrls0.neitherReadNorWriteReqs            0                       # Number of requests that are neither read nor write
system.mem_ctrls0.perBankRdBursts::0          1066790                       # Per bank write bursts
system.mem_ctrls0.perBankRdBursts::1           936938                       # Per bank write bursts
system.mem_ctrls0.perBankRdBursts::2           564908                       # Per bank write bursts
system.mem_ctrls0.perBankRdBursts::3           165670                       # Per bank write bursts
system.mem_ctrls0.perBankRdBursts::4           644852                       # Per bank write bursts
system.mem_ctrls0.perBankRdBursts::5           657966                       # Per bank write bursts
system.mem_ctrls0.perBankRdBursts::6           114420                       # Per bank write bursts
system.mem_ctrls0.perBankRdBursts::7           244342                       # Per bank write bursts
system.mem_ctrls0.perBankRdBursts::8           235988                       # Per bank write bursts
system.mem_ctrls0.perBankRdBursts::9           215844                       # Per bank write bursts
system.mem_ctrls0.perBankRdBursts::10          202620                       # Per bank write bursts
system.mem_ctrls0.perBankRdBursts::11          191892                       # Per bank write bursts
system.mem_ctrls0.perBankRdBursts::12          235992                       # Per bank write bursts
system.mem_ctrls0.perBankRdBursts::13          219308                       # Per bank write bursts
system.mem_ctrls0.perBankRdBursts::14          514402                       # Per bank write bursts
system.mem_ctrls0.perBankRdBursts::15          644928                       # Per bank write bursts
system.mem_ctrls0.perBankWrBursts::0           457616                       # Per bank write bursts
system.mem_ctrls0.perBankWrBursts::1           464964                       # Per bank write bursts
system.mem_ctrls0.perBankWrBursts::2           271774                       # Per bank write bursts
system.mem_ctrls0.perBankWrBursts::3                0                       # Per bank write bursts
system.mem_ctrls0.perBankWrBursts::4           414816                       # Per bank write bursts
system.mem_ctrls0.perBankWrBursts::5           457727                       # Per bank write bursts
system.mem_ctrls0.perBankWrBursts::6                0                       # Per bank write bursts
system.mem_ctrls0.perBankWrBursts::7                0                       # Per bank write bursts
system.mem_ctrls0.perBankWrBursts::8                0                       # Per bank write bursts
system.mem_ctrls0.perBankWrBursts::9              112                       # Per bank write bursts
system.mem_ctrls0.perBankWrBursts::10               0                       # Per bank write bursts
system.mem_ctrls0.perBankWrBursts::11               0                       # Per bank write bursts
system.mem_ctrls0.perBankWrBursts::12               0                       # Per bank write bursts
system.mem_ctrls0.perBankWrBursts::13           14302                       # Per bank write bursts
system.mem_ctrls0.perBankWrBursts::14          186144                       # Per bank write bursts
system.mem_ctrls0.perBankWrBursts::15          457600                       # Per bank write bursts
system.mem_ctrls0.avgRdQLen                      2.00                       # Average read queue length when enqueuing
system.mem_ctrls0.avgWrQLen                     24.88                       # Average write queue length when enqueuing
system.mem_ctrls0.totQLat                112393241190                       # Total ticks spent queuing
system.mem_ctrls0.totBusLat               34284300000                       # Total ticks spent in databus transfers
system.mem_ctrls0.totMemAccLat           240959366190                       # Total ticks spent from burst creation until serviced by the DRAM
system.mem_ctrls0.avgQLat                    16391.36                       # Average queueing delay per DRAM burst
system.mem_ctrls0.avgBusLat                   5000.00                       # Average bus latency per DRAM burst
system.mem_ctrls0.avgMemAccLat               35141.36                       # Average memory access latency per DRAM burst
system.mem_ctrls0.numRdRetry                        0                       # Number of times read queue was full causing retry
system.mem_ctrls0.numWrRetry                        0                       # Number of times write queue was full causing retry
system.mem_ctrls0.readRowHits                 4677876                       # Number of row buffer hits during reads
system.mem_ctrls0.writeRowHits                2438088                       # Number of row buffer hits during writes
system.mem_ctrls0.readRowHitRate                68.22                       # Row buffer hit rate for reads
system.mem_ctrls0.writeRowHitRate               89.47                       # Row buffer hit rate for writes
system.mem_ctrls0.readPktSize::0                    0                       # Read request sizes (log2)
system.mem_ctrls0.readPktSize::1                    0                       # Read request sizes (log2)
system.mem_ctrls0.readPktSize::2                    0                       # Read request sizes (log2)
system.mem_ctrls0.readPktSize::3                    0                       # Read request sizes (log2)
system.mem_ctrls0.readPktSize::4                    0                       # Read request sizes (log2)
system.mem_ctrls0.readPktSize::5                    0                       # Read request sizes (log2)
system.mem_ctrls0.readPktSize::6              6856860                       # Read request sizes (log2)
system.mem_ctrls0.writePktSize::0                   0                       # Write request sizes (log2)
system.mem_ctrls0.writePktSize::1                   0                       # Write request sizes (log2)
system.mem_ctrls0.writePktSize::2                   0                       # Write request sizes (log2)
system.mem_ctrls0.writePktSize::3                   0                       # Write request sizes (log2)
system.mem_ctrls0.writePktSize::4                   0                       # Write request sizes (log2)
system.mem_ctrls0.writePktSize::5                   0                       # Write request sizes (log2)
system.mem_ctrls0.writePktSize::6             2725084                       # Write request sizes (log2)
system.mem_ctrls0.rdQLenPdf::0                3428430                       # What read queue length does an incoming req see
system.mem_ctrls0.rdQLenPdf::1                3428430                       # What read queue length does an incoming req see
system.mem_ctrls0.rdQLenPdf::2                      0                       # What read queue length does an incoming req see
system.mem_ctrls0.rdQLenPdf::3                      0                       # What read queue length does an incoming req see
system.mem_ctrls0.rdQLenPdf::4                      0                       # What read queue length does an incoming req see
system.mem_ctrls0.rdQLenPdf::5                      0                       # What read queue length does an incoming req see
system.mem_ctrls0.rdQLenPdf::6                      0                       # What read queue length does an incoming req see
system.mem_ctrls0.rdQLenPdf::7                      0                       # What read queue length does an incoming req see
system.mem_ctrls0.rdQLenPdf::8                      0                       # What read queue length does an incoming req see
system.mem_ctrls0.rdQLenPdf::9                      0                       # What read queue length does an incoming req see
system.mem_ctrls0.rdQLenPdf::10                     0                       # What read queue length does an incoming req see
system.mem_ctrls0.rdQLenPdf::11                     0                       # What read queue length does an incoming req see
system.mem_ctrls0.rdQLenPdf::12                     0                       # What read queue length does an incoming req see
system.mem_ctrls0.rdQLenPdf::13                     0                       # What read queue length does an incoming req see
system.mem_ctrls0.rdQLenPdf::14                     0                       # What read queue length does an incoming req see
system.mem_ctrls0.rdQLenPdf::15                     0                       # What read queue length does an incoming req see
system.mem_ctrls0.rdQLenPdf::16                     0                       # What read queue length does an incoming req see
system.mem_ctrls0.rdQLenPdf::17                     0                       # What read queue length does an incoming req see
system.mem_ctrls0.rdQLenPdf::18                     0                       # What read queue length does an incoming req see
system.mem_ctrls0.rdQLenPdf::19                     0                       # What read queue length does an incoming req see
system.mem_ctrls0.rdQLenPdf::20                     0                       # What read queue length does an incoming req see
system.mem_ctrls0.rdQLenPdf::21                     0                       # What read queue length does an incoming req see
system.mem_ctrls0.rdQLenPdf::22                     0                       # What read queue length does an incoming req see
system.mem_ctrls0.rdQLenPdf::23                     0                       # What read queue length does an incoming req see
system.mem_ctrls0.rdQLenPdf::24                     0                       # What read queue length does an incoming req see
system.mem_ctrls0.rdQLenPdf::25                     0                       # What read queue length does an incoming req see
system.mem_ctrls0.rdQLenPdf::26                     0                       # What read queue length does an incoming req see
system.mem_ctrls0.rdQLenPdf::27                     0                       # What read queue length does an incoming req see
system.mem_ctrls0.rdQLenPdf::28                     0                       # What read queue length does an incoming req see
system.mem_ctrls0.rdQLenPdf::29                     0                       # What read queue length does an incoming req see
system.mem_ctrls0.rdQLenPdf::30                     0                       # What read queue length does an incoming req see
system.mem_ctrls0.rdQLenPdf::31                     0                       # What read queue length does an incoming req see
system.mem_ctrls0.wrQLenPdf::0                      1                       # What write queue length does an incoming req see
system.mem_ctrls0.wrQLenPdf::1                      1                       # What write queue length does an incoming req see
system.mem_ctrls0.wrQLenPdf::2                      1                       # What write queue length does an incoming req see
system.mem_ctrls0.wrQLenPdf::3                      1                       # What write queue length does an incoming req see
system.mem_ctrls0.wrQLenPdf::4                      1                       # What write queue length does an incoming req see
system.mem_ctrls0.wrQLenPdf::5                      1                       # What write queue length does an incoming req see
system.mem_ctrls0.wrQLenPdf::6                      1                       # What write queue length does an incoming req see
system.mem_ctrls0.wrQLenPdf::7                      1                       # What write queue length does an incoming req see
system.mem_ctrls0.wrQLenPdf::8                      1                       # What write queue length does an incoming req see
system.mem_ctrls0.wrQLenPdf::9                      1                       # What write queue length does an incoming req see
system.mem_ctrls0.wrQLenPdf::10                     1                       # What write queue length does an incoming req see
system.mem_ctrls0.wrQLenPdf::11                     1                       # What write queue length does an incoming req see
system.mem_ctrls0.wrQLenPdf::12                     1                       # What write queue length does an incoming req see
system.mem_ctrls0.wrQLenPdf::13                     1                       # What write queue length does an incoming req see
system.mem_ctrls0.wrQLenPdf::14                     1                       # What write queue length does an incoming req see
system.mem_ctrls0.wrQLenPdf::15                145898                       # What write queue length does an incoming req see
system.mem_ctrls0.wrQLenPdf::16                145954                       # What write queue length does an incoming req see
system.mem_ctrls0.wrQLenPdf::17                152411                       # What write queue length does an incoming req see
system.mem_ctrls0.wrQLenPdf::18                152442                       # What write queue length does an incoming req see
system.mem_ctrls0.wrQLenPdf::19                152071                       # What write queue length does an incoming req see
system.mem_ctrls0.wrQLenPdf::20                152020                       # What write queue length does an incoming req see
system.mem_ctrls0.wrQLenPdf::21                152020                       # What write queue length does an incoming req see
system.mem_ctrls0.wrQLenPdf::22                152020                       # What write queue length does an incoming req see
system.mem_ctrls0.wrQLenPdf::23                152020                       # What write queue length does an incoming req see
system.mem_ctrls0.wrQLenPdf::24                152020                       # What write queue length does an incoming req see
system.mem_ctrls0.wrQLenPdf::25                152020                       # What write queue length does an incoming req see
system.mem_ctrls0.wrQLenPdf::26                152020                       # What write queue length does an incoming req see
system.mem_ctrls0.wrQLenPdf::27                152020                       # What write queue length does an incoming req see
system.mem_ctrls0.wrQLenPdf::28                152020                       # What write queue length does an incoming req see
system.mem_ctrls0.wrQLenPdf::29                152019                       # What write queue length does an incoming req see
system.mem_ctrls0.wrQLenPdf::30                152019                       # What write queue length does an incoming req see
system.mem_ctrls0.wrQLenPdf::31                152019                       # What write queue length does an incoming req see
system.mem_ctrls0.wrQLenPdf::32                152019                       # What write queue length does an incoming req see
system.mem_ctrls0.wrQLenPdf::33                    37                       # What write queue length does an incoming req see
system.mem_ctrls0.wrQLenPdf::34                     0                       # What write queue length does an incoming req see
system.mem_ctrls0.wrQLenPdf::35                     0                       # What write queue length does an incoming req see
system.mem_ctrls0.wrQLenPdf::36                     0                       # What write queue length does an incoming req see
system.mem_ctrls0.wrQLenPdf::37                     0                       # What write queue length does an incoming req see
system.mem_ctrls0.wrQLenPdf::38                     0                       # What write queue length does an incoming req see
system.mem_ctrls0.wrQLenPdf::39                     0                       # What write queue length does an incoming req see
system.mem_ctrls0.wrQLenPdf::40                     0                       # What write queue length does an incoming req see
system.mem_ctrls0.wrQLenPdf::41                     0                       # What write queue length does an incoming req see
system.mem_ctrls0.wrQLenPdf::42                     0                       # What write queue length does an incoming req see
system.mem_ctrls0.wrQLenPdf::43                     0                       # What write queue length does an incoming req see
system.mem_ctrls0.wrQLenPdf::44                     0                       # What write queue length does an incoming req see
system.mem_ctrls0.wrQLenPdf::45                     0                       # What write queue length does an incoming req see
system.mem_ctrls0.wrQLenPdf::46                     0                       # What write queue length does an incoming req see
system.mem_ctrls0.wrQLenPdf::47                     0                       # What write queue length does an incoming req see
system.mem_ctrls0.wrQLenPdf::48                     0                       # What write queue length does an incoming req see
system.mem_ctrls0.wrQLenPdf::49                     0                       # What write queue length does an incoming req see
system.mem_ctrls0.wrQLenPdf::50                     0                       # What write queue length does an incoming req see
system.mem_ctrls0.wrQLenPdf::51                     0                       # What write queue length does an incoming req see
system.mem_ctrls0.wrQLenPdf::52                     0                       # What write queue length does an incoming req see
system.mem_ctrls0.wrQLenPdf::53                     0                       # What write queue length does an incoming req see
system.mem_ctrls0.wrQLenPdf::54                     0                       # What write queue length does an incoming req see
system.mem_ctrls0.wrQLenPdf::55                     0                       # What write queue length does an incoming req see
system.mem_ctrls0.wrQLenPdf::56                     0                       # What write queue length does an incoming req see
system.mem_ctrls0.wrQLenPdf::57                     0                       # What write queue length does an incoming req see
system.mem_ctrls0.wrQLenPdf::58                     0                       # What write queue length does an incoming req see
system.mem_ctrls0.wrQLenPdf::59                     0                       # What write queue length does an incoming req see
system.mem_ctrls0.wrQLenPdf::60                     0                       # What write queue length does an incoming req see
[...]
system.cpu.icache.tags.age_task_id_blocks_1024::4          624                       # Occupied blocks per task id
system.cpu.icache.tags.occ_task_id_percent::1024            1                       # Percentage of cache occupancy per task id
system.cpu.icache.tags.tag_accesses      193857411665                       # Number of tag accesses
system.cpu.icache.tags.data_accesses     193857411665                       # Number of data accesses
system.cpu.dtb.walker.pwrStateResidencyTicks::UNDEFINED 5000000000000                       # Cumulative time (in ticks) in various power states
system.cpu.dtb.stage2_mmu.stage2_tlb.walker.pwrStateResidencyTicks::UNDEFINED 5000000000000                       # Cumulative time (in ticks) in various power states
system.cpu.itb.walker.pwrStateResidencyTicks::UNDEFINED 5000000000000                       # Cumulative time (in ticks) in various power states
system.cpu.itb.stage2_mmu.stage2_tlb.walker.pwrStateResidencyTicks::UNDEFINED 5000000000000                       # Cumulative time (in ticks) in various power states
system.cpu.dcache.pwrStateResidencyTicks::UNDEFINED 5000000000000                       # Cumulative time (in ticks) in various power states
system.cpu.dcache.demand_hits::.cpu.data    721717816                       # number of demand (read+write) hits
system.cpu.dcache.demand_hits::.switch_cpus.data   1112893276                       # number of demand (read+write) hits
system.cpu.dcache.demand_hits::total       1834611092                       # number of demand (read+write) hits
system.cpu.dcache.overall_hits::.cpu.data    721717816                       # number of overall hits
system.cpu.dcache.overall_hits::.switch_cpus.data   1112893276                       # number of overall hits
system.cpu.dcache.overall_hits::total      1834611092                       # number of overall hits
system.cpu.dcache.demand_misses::.cpu.data      7507294                       # number of demand (read+write) misses
system.cpu.dcache.demand_misses::.switch_cpus.data      6844667                       # number of demand (read+write) misses
system.cpu.dcache.demand_misses::total       14351961                       # number of demand (read+write) misses
system.cpu.dcache.overall_misses::.cpu.data      7507294                       # number of overall misses
system.cpu.dcache.overall_misses::.switch_cpus.data      6844667                       # number of overall misses
system.cpu.dcache.overall_misses::total      14351961                       # number of overall misses
system.cpu.dcache.demand_miss_latency::.switch_cpus.data 603582185181                       # number of demand (read+write) miss cycles
system.cpu.dcache.demand_miss_latency::total 603582185181                       # number of demand (read+write) miss cycles
system.cpu.dcache.overall_miss_latency::.switch_cpus.data 603582185181                       # number of overall miss cycles
system.cpu.dcache.overall_miss_latency::total 603582185181                       # number of overall miss cycles
system.cpu.dcache.demand_accesses::.cpu.data    729225110                       # number of demand (read+write) accesses
system.cpu.dcache.demand_accesses::.switch_cpus.data   1119737943                       # number of demand (read+write) accesses
system.cpu.dcache.demand_accesses::total   1848963053                       # number of demand (read+write) accesses
system.cpu.dcache.overall_accesses::.cpu.data    729225110                       # number of overall (read+write) accesses
system.cpu.dcache.overall_accesses::.switch_cpus.data   1119737943                       # number of overall (read+write) accesses
system.cpu.dcache.overall_accesses::total   1848963053                       # number of overall (read+write) accesses
system.cpu.dcache.demand_miss_rate::.cpu.data     0.010295                       # miss rate for demand accesses
system.cpu.dcache.demand_miss_rate::.switch_cpus.data     0.006113                       # miss rate for demand accesses
system.cpu.dcache.demand_miss_rate::total     0.007762                       # miss rate for demand accesses
system.cpu.dcache.overall_miss_rate::.cpu.data     0.010295                       # miss rate for overall accesses
system.cpu.dcache.overall_miss_rate::.switch_cpus.data     0.006113                       # miss rate for overall accesses
system.cpu.dcache.overall_miss_rate::total     0.007762                       # miss rate for overall accesses
system.cpu.dcache.demand_avg_miss_latency::.switch_cpus.data 88182.841500                       # average overall miss latency
system.cpu.dcache.demand_avg_miss_latency::total 42055.729191                       # average overall miss latency
system.cpu.dcache.overall_avg_miss_latency::.switch_cpus.data 88182.841500                       # average overall miss latency
system.cpu.dcache.overall_avg_miss_latency::total 42055.729191                       # average overall miss latency
system.cpu.dcache.blocked_cycles::no_mshrs            0                       # number of cycles access was blocked
system.cpu.dcache.blocked_cycles::no_targets            0                       # number of cycles access was blocked
system.cpu.dcache.blocked::no_mshrs                 0                       # number of cycles access was blocked
system.cpu.dcache.blocked::no_targets               0                       # number of cycles access was blocked
system.cpu.dcache.avg_blocked_cycles::no_mshrs          nan                       # average number of cycles each access was blocked
system.cpu.dcache.avg_blocked_cycles::no_targets          nan                       # average number of cycles each access was blocked
system.cpu.dcache.writebacks::.writebacks      7805033                       # number of writebacks
system.cpu.dcache.writebacks::total           7805033                       # number of writebacks
system.cpu.dcache.demand_mshr_misses::.switch_cpus.data      6844667                       # number of demand (read+write) MSHR misses
system.cpu.dcache.demand_mshr_misses::total      6844667                       # number of demand (read+write) MSHR misses
system.cpu.dcache.overall_mshr_misses::.switch_cpus.data      6844667                       # number of overall MSHR misses
system.cpu.dcache.overall_mshr_misses::total      6844667                       # number of overall MSHR misses
system.cpu.dcache.demand_mshr_miss_latency::.switch_cpus.data 597873732903                       # number of demand (read+write) MSHR miss cycles
system.cpu.dcache.demand_mshr_miss_latency::total 597873732903                       # number of demand (read+write) MSHR miss cycles
system.cpu.dcache.overall_mshr_miss_latency::.switch_cpus.data 597873732903                       # number of overall MSHR miss cycles
system.cpu.dcache.overall_mshr_miss_latency::total 597873732903                       # number of overall MSHR miss cycles
system.cpu.dcache.demand_mshr_miss_rate::.switch_cpus.data     0.006113                       # mshr miss rate for demand accesses
system.cpu.dcache.demand_mshr_miss_rate::total     0.003702                       # mshr miss rate for demand accesses
system.cpu.dcache.overall_mshr_miss_rate::.switch_cpus.data     0.006113                       # mshr miss rate for overall accesses
system.cpu.dcache.overall_mshr_miss_rate::total     0.003702                       # mshr miss rate for overall accesses
system.cpu.dcache.demand_avg_mshr_miss_latency::.switch_cpus.data 87348.841500                       # average overall mshr miss latency
system.cpu.dcache.demand_avg_mshr_miss_latency::total 87348.841500                       # average overall mshr miss latency
system.cpu.dcache.overall_avg_mshr_miss_latency::.switch_cpus.data 87348.841500                       # average overall mshr miss latency
system.cpu.dcache.overall_avg_mshr_miss_latency::total 87348.841500                       # average overall mshr miss latency
system.cpu.dcache.replacements               14351807                       # number of replacements
system.cpu.dcache.ReadReq_hits::.cpu.data    442228627                       # number of ReadReq hits
system.cpu.dcache.ReadReq_hits::.switch_cpus.data    713089886                       # number of ReadReq hits
system.cpu.dcache.ReadReq_hits::total      1155318513                       # number of ReadReq hits
system.cpu.dcache.ReadReq_misses::.cpu.data      3792261                       # number of ReadReq misses
system.cpu.dcache.ReadReq_misses::.switch_cpus.data      6526289                       # number of ReadReq misses
system.cpu.dcache.ReadReq_misses::total      10318550                       # number of ReadReq misses
system.cpu.dcache.ReadReq_miss_latency::.switch_cpus.data 576756670674                       # number of ReadReq miss cycles
system.cpu.dcache.ReadReq_miss_latency::total 576756670674                       # number of ReadReq miss cycles
system.cpu.dcache.ReadReq_accesses::.cpu.data    446020888                       # number of ReadReq accesses(hits+misses)
system.cpu.dcache.ReadReq_accesses::.switch_cpus.data    719616175                       # number of ReadReq accesses(hits+misses)
system.cpu.dcache.ReadReq_accesses::total   1165637063                       # number of ReadReq accesses(hits+misses)
system.cpu.dcache.ReadReq_miss_rate::.cpu.data     0.008502                       # miss rate for ReadReq accesses
system.cpu.dcache.ReadReq_miss_rate::.switch_cpus.data     0.009069                       # miss rate for ReadReq accesses
system.cpu.dcache.ReadReq_miss_rate::total     0.008852                       # miss rate for ReadReq accesses
system.cpu.dcache.ReadReq_avg_miss_latency::.switch_cpus.data 88374.368753                       # average ReadReq miss latency
system.cpu.dcache.ReadReq_avg_miss_latency::total 55895.127772                       # average ReadReq miss latency
system.cpu.dcache.ReadReq_mshr_misses::.switch_cpus.data      6526289                       # number of ReadReq MSHR misses
system.cpu.dcache.ReadReq_mshr_misses::total      6526289                       # number of ReadReq MSHR misses
system.cpu.dcache.ReadReq_mshr_miss_latency::.switch_cpus.data 571313745648                       # number of ReadReq MSHR miss cycles
system.cpu.dcache.ReadReq_mshr_miss_latency::total 571313745648                       # number of ReadReq MSHR miss cycles
system.cpu.dcache.ReadReq_mshr_miss_rate::.switch_cpus.data     0.009069                       # mshr miss rate for ReadReq accesses
system.cpu.dcache.ReadReq_mshr_miss_rate::total     0.005599                       # mshr miss rate for ReadReq accesses
system.cpu.dcache.ReadReq_avg_mshr_miss_latency::.switch_cpus.data 87540.368753                       # average ReadReq mshr miss latency
system.cpu.dcache.ReadReq_avg_mshr_miss_latency::total 87540.368753                       # average ReadReq mshr miss latency
system.cpu.dcache.WriteReq_hits::.cpu.data    279489189                       # number of WriteReq hits
system.cpu.dcache.WriteReq_hits::.switch_cpus.data    399803390                       # number of WriteReq hits
system.cpu.dcache.WriteReq_hits::total      679292579                       # number of WriteReq hits
system.cpu.dcache.WriteReq_misses::.cpu.data      3715033                       # number of WriteReq misses
system.cpu.dcache.WriteReq_misses::.switch_cpus.data       318378                       # number of WriteReq misses
system.cpu.dcache.WriteReq_misses::total      4033411                       # number of WriteReq misses
system.cpu.dcache.WriteReq_miss_latency::.switch_cpus.data  26825514507                       # number of WriteReq miss cycles
system.cpu.dcache.WriteReq_miss_latency::total  26825514507                       # number of WriteReq miss cycles
system.cpu.dcache.WriteReq_accesses::.cpu.data    283204222                       # number of WriteReq accesses(hits+misses)
system.cpu.dcache.WriteReq_accesses::.switch_cpus.data    400121768                       # number of WriteReq accesses(hits+misses)
system.cpu.dcache.WriteReq_accesses::total    683325990                       # number of WriteReq accesses(hits+misses)
system.cpu.dcache.WriteReq_miss_rate::.cpu.data     0.013118                       # miss rate for WriteReq accesses
system.cpu.dcache.WriteReq_miss_rate::.switch_cpus.data     0.000796                       # miss rate for WriteReq accesses
system.cpu.dcache.WriteReq_miss_rate::total     0.005903                       # miss rate for WriteReq accesses
system.cpu.dcache.WriteReq_avg_miss_latency::.switch_cpus.data 84256.809538                       # average WriteReq miss latency
system.cpu.dcache.WriteReq_avg_miss_latency::total  6650.825940                       # average WriteReq miss latency
system.cpu.dcache.WriteReq_mshr_misses::.switch_cpus.data       318378                       # number of WriteReq MSHR misses
system.cpu.dcache.WriteReq_mshr_misses::total       318378                       # number of WriteReq MSHR misses
system.cpu.dcache.WriteReq_mshr_miss_latency::.switch_cpus.data  26559987255                       # number of WriteReq MSHR miss cycles
system.cpu.dcache.WriteReq_mshr_miss_latency::total  26559987255                       # number of WriteReq MSHR miss cycles
system.cpu.dcache.WriteReq_mshr_miss_rate::.switch_cpus.data     0.000796                       # mshr miss rate for WriteReq accesses
system.cpu.dcache.WriteReq_mshr_miss_rate::total     0.000466                       # mshr miss rate for WriteReq accesses
system.cpu.dcache.WriteReq_avg_mshr_miss_latency::.switch_cpus.data 83422.809538                       # average WriteReq mshr miss latency
system.cpu.dcache.WriteReq_avg_mshr_miss_latency::total 83422.809538                       # average WriteReq mshr miss latency
system.cpu.dcache.LoadLockedReq_hits::.cpu.data     20101419                       # number of LoadLockedReq hits
system.cpu.dcache.LoadLockedReq_hits::.switch_cpus.data     32953731                       # number of LoadLockedReq hits
system.cpu.dcache.LoadLockedReq_hits::total     53055150                       # number of LoadLockedReq hits
system.cpu.dcache.LoadLockedReq_misses::.cpu.data           46                       # number of LoadLockedReq misses
system.cpu.dcache.LoadLockedReq_misses::.switch_cpus.data           56                       # number of LoadLockedReq misses
system.cpu.dcache.LoadLockedReq_misses::total          102                       # number of LoadLockedReq misses
system.cpu.dcache.LoadLockedReq_miss_latency::.switch_cpus.data      4153320                       # number of LoadLockedReq miss cycles
system.cpu.dcache.LoadLockedReq_miss_latency::total      4153320                       # number of LoadLockedReq miss cycles
system.cpu.dcache.LoadLockedReq_accesses::.cpu.data     20101465                       # number of LoadLockedReq accesses(hits+misses)
system.cpu.dcache.LoadLockedReq_accesses::.switch_cpus.data     32953787                       # number of LoadLockedReq accesses(hits+misses)
system.cpu.dcache.LoadLockedReq_accesses::total     53055252                       # number of LoadLockedReq accesses(hits+misses)
system.cpu.dcache.LoadLockedReq_miss_rate::.cpu.data     0.000002                       # miss rate for LoadLockedReq accesses
system.cpu.dcache.LoadLockedReq_miss_rate::.switch_cpus.data     0.000002                       # miss rate for LoadLockedReq accesses
system.cpu.dcache.LoadLockedReq_miss_rate::total     0.000002                       # miss rate for LoadLockedReq accesses
system.cpu.dcache.LoadLockedReq_avg_miss_latency::.switch_cpus.data 74166.428571                       # average LoadLockedReq miss latency
system.cpu.dcache.LoadLockedReq_avg_miss_latency::total 40718.823529                       # average LoadLockedReq miss latency
system.cpu.dcache.LoadLockedReq_mshr_misses::.switch_cpus.data           56                       # number of LoadLockedReq MSHR misses
system.cpu.dcache.LoadLockedReq_mshr_misses::total           56                       # number of LoadLockedReq MSHR misses
system.cpu.dcache.LoadLockedReq_mshr_miss_latency::.switch_cpus.data      4106616                       # number of LoadLockedReq MSHR miss cycles
system.cpu.dcache.LoadLockedReq_mshr_miss_latency::total      4106616                       # number of LoadLockedReq MSHR miss cycles
system.cpu.dcache.LoadLockedReq_mshr_miss_rate::.switch_cpus.data     0.000002                       # mshr miss rate for LoadLockedReq accesses
system.cpu.dcache.LoadLockedReq_mshr_miss_rate::total     0.000001                       # mshr miss rate for LoadLockedReq accesses
system.cpu.dcache.LoadLockedReq_avg_mshr_miss_latency::.switch_cpus.data 73332.428571                       # average LoadLockedReq mshr miss latency
system.cpu.dcache.LoadLockedReq_avg_mshr_miss_latency::total 73332.428571                       # average LoadLockedReq mshr miss latency
system.cpu.dcache.StoreCondReq_hits::.cpu.data     20101465                       # number of StoreCondReq hits
system.cpu.dcache.StoreCondReq_hits::.switch_cpus.data     32953787                       # number of StoreCondReq hits
system.cpu.dcache.StoreCondReq_hits::total     53055252                       # number of StoreCondReq hits
system.cpu.dcache.StoreCondReq_accesses::.cpu.data     20101465                       # number of StoreCondReq accesses(hits+misses)
system.cpu.dcache.StoreCondReq_accesses::.switch_cpus.data     32953787                       # number of StoreCondReq accesses(hits+misses)
system.cpu.dcache.StoreCondReq_accesses::total     53055252                       # number of StoreCondReq accesses(hits+misses)
system.cpu.dcache.tags.pwrStateResidencyTicks::UNDEFINED 5000000000000                       # Cumulative time (in ticks) in various power states
system.cpu.dcache.tags.tagsinuse           255.999719                       # Cycle average of tags in use
system.cpu.dcache.tags.total_refs          1955073557                       # Total number of references to valid blocks.
system.cpu.dcache.tags.sampled_refs          14352063                       # Sample count of references to valid blocks.
system.cpu.dcache.tags.avg_refs            136.222476                       # Average number of references to valid blocks.
system.cpu.dcache.tags.warmup_cycle              1668                       # Cycle when the warmup percentage was hit.
system.cpu.dcache.tags.occ_blocks::.cpu.data    88.711517                       # Average occupied blocks per requestor
system.cpu.dcache.tags.occ_blocks::.switch_cpus.data   167.288202                       # Average occupied blocks per requestor
system.cpu.dcache.tags.occ_percent::.cpu.data     0.346529                       # Average percentage of cache occupancy
system.cpu.dcache.tags.occ_percent::.switch_cpus.data     0.653470                       # Average percentage of cache occupancy
system.cpu.dcache.tags.occ_percent::total     0.999999                       # Average percentage of cache occupancy
system.cpu.dcache.tags.occ_task_id_blocks::1024          256                       # Occupied blocks per task id
system.cpu.dcache.tags.age_task_id_blocks_1024::0           14                       # Occupied blocks per task id
system.cpu.dcache.tags.age_task_id_blocks_1024::1          151                       # Occupied blocks per task id
system.cpu.dcache.tags.age_task_id_blocks_1024::2           41                       # Occupied blocks per task id
system.cpu.dcache.tags.age_task_id_blocks_1024::4           50                       # Occupied blocks per task id
system.cpu.dcache.tags.occ_task_id_percent::1024            1                       # Percentage of cache occupancy per task id
system.cpu.dcache.tags.tag_accesses       62576705887                       # Number of tag accesses
system.cpu.dcache.tags.data_accesses      62576705887                       # Number of data accesses

---------- End Simulation Statistics   ----------
