
---------- Begin Simulation Statistics ----------
sim_seconds                                  0.032569                       # Number of seconds simulated
sim_ticks                                 32568659100                       # Number of ticks simulated
final_tick                               604071582219                       # Number of ticks from beginning of simulation (restored from checkpoints and never reset)
sim_freq                                 1000000000000                       # Frequency of simulated ticks
host_inst_rate                                 116015                       # Simulator instruction rate (inst/s)
host_op_rate                                   149308                       # Simulator op (including micro ops) rate (op/s)
host_tick_rate                                1092409                       # Simulator tick rate (ticks/s)
host_mem_usage                               16908748                       # Number of bytes of host memory used
host_seconds                                 29813.61                       # Real time elapsed on the host
sim_insts                                  3458836565                       # Number of instructions simulated
sim_ops                                    4451405944                       # Number of ops (including micro ops) simulated
system.physmem.bytes_read::switch_cpus0.inst         2048                       # Number of bytes read from this memory
system.physmem.bytes_read::switch_cpus0.data      1641600                       # Number of bytes read from this memory
system.physmem.bytes_read::switch_cpus1.inst         1664                       # Number of bytes read from this memory
system.physmem.bytes_read::switch_cpus1.data      1827200                       # Number of bytes read from this memory
system.physmem.bytes_read::switch_cpus2.inst         2560                       # Number of bytes read from this memory
system.physmem.bytes_read::switch_cpus2.data       595840                       # Number of bytes read from this memory
system.physmem.bytes_read::total              4070912                       # Number of bytes read from this memory
system.physmem.bytes_inst_read::switch_cpus0.inst         2048                       # Number of instructions bytes read from this memory
system.physmem.bytes_inst_read::switch_cpus1.inst         1664                       # Number of instructions bytes read from this memory
system.physmem.bytes_inst_read::switch_cpus2.inst         2560                       # Number of instructions bytes read from this memory
system.physmem.bytes_inst_read::total            6272                       # Number of instructions bytes read from this memory
system.physmem.bytes_written::writebacks      1050880                       # Number of bytes written to this memory
system.physmem.bytes_written::total           1050880                       # Number of bytes written to this memory
system.physmem.num_reads::switch_cpus0.inst           16                       # Number of read requests responded to by this memory
system.physmem.num_reads::switch_cpus0.data        12825                       # Number of read requests responded to by this memory
system.physmem.num_reads::switch_cpus1.inst           13                       # Number of read requests responded to by this memory
system.physmem.num_reads::switch_cpus1.data        14275                       # Number of read requests responded to by this memory
system.physmem.num_reads::switch_cpus2.inst           20                       # Number of read requests responded to by this memory
system.physmem.num_reads::switch_cpus2.data         4655                       # Number of read requests responded to by this memory
system.physmem.num_reads::total                 31804                       # Number of read requests responded to by this memory
system.physmem.num_writes::writebacks            8210                       # Number of write requests responded to by this memory
system.physmem.num_writes::functional               0                       # Number of write requests responded to by this memory
system.physmem.num_writes::interrupt                0                       # Number of write requests responded to by this memory
system.physmem.num_writes::switch_cpus0.dtb.walker            0                       # Number of write requests responded to by this memory
system.physmem.num_writes::switch_cpus0.itb.walker            0                       # Number of write requests responded to by this memory
system.physmem.num_writes::switch_cpus0.inst            0                       # Number of write requests responded to by this memory
system.physmem.num_writes::switch_cpus0.data            0                       # Number of write requests responded to by this memory
system.physmem.num_writes::switch_cpus1.dtb.walker            0                       # Number of write requests responded to by this memory
system.physmem.num_writes::switch_cpus1.itb.walker            0                       # Number of write requests responded to by this memory
system.physmem.num_writes::switch_cpus1.inst            0                       # Number of write requests responded to by this memory
system.physmem.num_writes::switch_cpus1.data            0                       # Number of write requests responded to by this memory
system.physmem.num_writes::switch_cpus2.dtb.walker            0                       # Number of write requests responded to by this memory
system.physmem.num_writes::switch_cpus2.itb.walker            0                       # Number of write requests responded to by this memory
system.physmem.num_writes::switch_cpus2.inst            0                       # Number of write requests responded to by this memory
system.physmem.num_writes::switch_cpus2.data            0                       # Number of write requests responded to by this memory
system.physmem.num_writes::cpu0.dtb.walker            0                       # Number of write requests responded to by this memory
system.physmem.num_writes::cpu0.itb.walker            0                       # Number of write requests responded to by this memory
system.physmem.num_writes::cpu0.inst                0                       # Number of write requests responded to by this memory
system.physmem.num_writes::cpu0.data                0                       # Number of write requests responded to by this memory
system.physmem.num_writes::cpu1.dtb.walker            0                       # Number of write requests responded to by this memory
system.physmem.num_writes::cpu1.itb.walker            0                       # Number of write requests responded to by this memory
system.physmem.num_writes::cpu1.inst                0                       # Number of write requests responded to by this memory
system.physmem.num_writes::cpu1.data                0                       # Number of write requests responded to by this memory
system.physmem.num_writes::cpu2.dtb.walker            0                       # Number of write requests responded to by this memory
system.physmem.num_writes::cpu2.itb.walker            0                       # Number of write requests responded to by this memory
system.physmem.num_writes::cpu2.inst                0                       # Number of write requests responded to by this memory
system.physmem.num_writes::cpu2.data                0                       # Number of write requests responded to by this memory
system.physmem.num_writes::total                 8210                       # Number of write requests responded to by this memory
system.physmem.bw_read::switch_cpus0.inst        62883                       # Total read bandwidth from this memory (bytes/s)
system.physmem.bw_read::switch_cpus0.data     50404286                       # Total read bandwidth from this memory (bytes/s)
system.physmem.bw_read::switch_cpus1.inst        51092                       # Total read bandwidth from this memory (bytes/s)
system.physmem.bw_read::switch_cpus1.data     56103016                       # Total read bandwidth from this memory (bytes/s)
system.physmem.bw_read::switch_cpus2.inst        78603                       # Total read bandwidth from this memory (bytes/s)
system.physmem.bw_read::switch_cpus2.data     18294889                       # Total read bandwidth from this memory (bytes/s)
system.physmem.bw_read::total               124994768                       # Total read bandwidth from this memory (bytes/s)
system.physmem.bw_inst_read::switch_cpus0.inst        62883                       # Instruction read bandwidth from this memory (bytes/s)
system.physmem.bw_inst_read::switch_cpus1.inst        51092                       # Instruction read bandwidth from this memory (bytes/s)
system.physmem.bw_inst_read::switch_cpus2.inst        78603                       # Instruction read bandwidth from this memory (bytes/s)
system.physmem.bw_inst_read::total             192578                       # Instruction read bandwidth from this memory (bytes/s)
system.physmem.bw_write::writebacks          32266603                       # Write bandwidth from this memory (bytes/s)
system.physmem.bw_write::total               32266603                       # Write bandwidth from this memory (bytes/s)
system.physmem.bw_total::writebacks          32266603                       # Total bandwidth to/from this memory (bytes/s)
system.physmem.bw_total::switch_cpus0.inst        62883                       # Total bandwidth to/from this memory (bytes/s)
system.physmem.bw_total::switch_cpus0.data     50404286                       # Total bandwidth to/from this memory (bytes/s)
system.physmem.bw_total::switch_cpus1.inst        51092                       # Total bandwidth to/from this memory (bytes/s)
system.physmem.bw_total::switch_cpus1.data     56103016                       # Total bandwidth to/from this memory (bytes/s)
system.physmem.bw_total::switch_cpus2.inst        78603                       # Total bandwidth to/from this memory (bytes/s)
system.physmem.bw_total::switch_cpus2.data     18294889                       # Total bandwidth to/from this memory (bytes/s)
system.physmem.bw_total::total              157261372                       # Total bandwidth to/from this memory (bytes/s)
system.switch_cpus0.dtb.inst_hits                   0                       # ITB inst hits
system.switch_cpus0.dtb.inst_misses                 0                       # ITB inst misses
system.switch_cpus0.dtb.read_hits                   0                       # DTB read hits
system.switch_cpus0.dtb.read_misses                 0                       # DTB read misses
system.switch_cpus0.dtb.write_hits                  0                       # DTB write hits
system.switch_cpus0.dtb.write_misses                0                       # DTB write misses
system.switch_cpus0.dtb.flush_tlb                   0                       # Number of times complete TLB was flushed
system.switch_cpus0.dtb.flush_tlb_mva               0                       # Number of times TLB was flushed by MVA
system.switch_cpus0.dtb.flush_tlb_mva_asid            0                       # Number of times TLB was flushed by MVA & ASID
system.switch_cpus0.dtb.flush_tlb_asid              0                       # Number of times TLB was flushed by ASID
system.switch_cpus0.dtb.flush_entries               0                       # Number of entries that have been flushed from TLB
system.switch_cpus0.dtb.align_faults                0                       # Number of TLB faults due to alignment restrictions
system.switch_cpus0.dtb.prefetch_faults             0                       # Number of TLB faults due to prefetch
system.switch_cpus0.dtb.domain_faults               0                       # Number of TLB faults due to domain restrictions
system.switch_cpus0.dtb.perms_faults                0                       # Number of TLB faults due to permissions restrictions
system.switch_cpus0.dtb.read_accesses               0                       # DTB read accesses
system.switch_cpus0.dtb.write_accesses              0                       # DTB write accesses
system.switch_cpus0.dtb.inst_accesses               0                       # ITB inst accesses
system.switch_cpus0.dtb.hits                        0                       # DTB hits
system.switch_cpus0.dtb.misses                      0                       # DTB misses
system.switch_cpus0.dtb.accesses                    0                       # DTB accesses
system.switch_cpus0.itb.inst_hits                   0                       # ITB inst hits
system.switch_cpus0.itb.inst_misses                 0                       # ITB inst misses
system.switch_cpus0.itb.read_hits                   0                       # DTB read hits
system.switch_cpus0.itb.read_misses                 0                       # DTB read misses
system.switch_cpus0.itb.write_hits                  0                       # DTB write hits
system.switch_cpus0.itb.write_misses                0                       # DTB write misses
system.switch_cpus0.itb.flush_tlb                   0                       # Number of times complete TLB was flushed
system.switch_cpus0.itb.flush_tlb_mva               0                       # Number of times TLB was flushed by MVA
system.switch_cpus0.itb.flush_tlb_mva_asid            0                       # Number of times TLB was flushed by MVA & ASID
system.switch_cpus0.itb.flush_tlb_asid              0                       # Number of times TLB was flushed by ASID
system.switch_cpus0.itb.flush_entries               0                       # Number of entries that have been flushed from TLB
system.switch_cpus0.itb.align_faults                0                       # Number of TLB faults due to alignment restrictions
system.switch_cpus0.itb.prefetch_faults             0                       # Number of TLB faults due to prefetch
system.switch_cpus0.itb.domain_faults               0                       # Number of TLB faults due to domain restrictions
system.switch_cpus0.itb.perms_faults                0                       # Number of TLB faults due to permissions restrictions
system.switch_cpus0.itb.read_accesses               0                       # DTB read accesses
system.switch_cpus0.itb.write_accesses              0                       # DTB write accesses
system.switch_cpus0.itb.inst_accesses               0                       # ITB inst accesses
system.switch_cpus0.itb.hits                        0                       # DTB hits
system.switch_cpus0.itb.misses                      0                       # DTB misses
system.switch_cpus0.itb.accesses                    0                       # DTB accesses
system.cpu0.workload.num_syscalls                   0                       # Number of system calls
system.switch_cpus0.numCycles                78102301                       # number of cpu cycles simulated
system.switch_cpus0.numWorkItemsStarted             0                       # number of work items this cpu started
system.switch_cpus0.numWorkItemsCompleted            0                       # number of work items this cpu completed
system.switch_cpus0.BPredUnit.lookups        28429578                       # Number of BP lookups
system.switch_cpus0.BPredUnit.condPredicted     24850778                       # Number of conditional branches predicted
system.switch_cpus0.BPredUnit.condIncorrect      1802291                       # Number of conditional branches incorrect
system.switch_cpus0.BPredUnit.BTBLookups     14175765                       # Number of BTB lookups
system.switch_cpus0.BPredUnit.BTBHits        13684306                       # Number of BTB hits
system.switch_cpus0.BPredUnit.BTBCorrect            0                       # Number of correct BTB predictions (this stat may not work properly.
system.switch_cpus0.BPredUnit.usedRAS         2043097                       # Number of times the RAS was used to get a target.
system.switch_cpus0.BPredUnit.RASInCorrect        56697                       # Number of incorrect RAS predictions.
system.switch_cpus0.fetch.icacheStallCycles     33532765                       # Number of cycles fetch is stalled on an Icache miss
system.switch_cpus0.fetch.Insts             158138772                       # Number of instructions fetch has processed
system.switch_cpus0.fetch.Branches           28429578                       # Number of branches that fetch encountered
system.switch_cpus0.fetch.predictedBranches     15727403                       # Number of branches that fetch has predicted taken
system.switch_cpus0.fetch.Cycles             32560031                       # Number of cycles fetch has run and was not squashing or blocked
system.switch_cpus0.fetch.SquashCycles        8837788                       # Number of cycles fetch has spent squashing
system.switch_cpus0.fetch.BlockedCycles       3784298                       # Number of cycles fetch has spent blocked
system.switch_cpus0.fetch.PendingTrapStallCycles           18                       # Number of stall cycles due to pending traps
system.switch_cpus0.fetch.CacheLines         16532991                       # Number of cache lines fetched
system.switch_cpus0.fetch.IcacheSquashes       719919                       # Number of outstanding Icache misses that were squashed
system.switch_cpus0.fetch.rateDist::samples     76902357                       # Number of instructions fetched each cycle (Total)
system.switch_cpus0.fetch.rateDist::mean     2.367097                       # Number of instructions fetched each cycle (Total)
system.switch_cpus0.fetch.rateDist::stdev     3.171397                       # Number of instructions fetched each cycle (Total)
system.switch_cpus0.fetch.rateDist::underflows            0      0.00%      0.00% # Number of instructions fetched each cycle (Total)
system.switch_cpus0.fetch.rateDist::0        44342326     57.66%     57.66% # Number of instructions fetched each cycle (Total)
system.switch_cpus0.fetch.rateDist::1         1613294      2.10%     59.76% # Number of instructions fetched each cycle (Total)
system.switch_cpus0.fetch.rateDist::2         2952977      3.84%     63.60% # Number of instructions fetched each cycle (Total)
system.switch_cpus0.fetch.rateDist::3         2772728      3.61%     67.20% # Number of instructions fetched each cycle (Total)
system.switch_cpus0.fetch.rateDist::4         4554967      5.92%     73.13% # Number of instructions fetched each cycle (Total)
system.switch_cpus0.fetch.rateDist::5         4744441      6.17%     79.30% # Number of instructions fetched each cycle (Total)
system.switch_cpus0.fetch.rateDist::6         1132079      1.47%     80.77% # Number of instructions fetched each cycle (Total)
system.switch_cpus0.fetch.rateDist::7          853020      1.11%     81.88% # Number of instructions fetched each cycle (Total)
system.switch_cpus0.fetch.rateDist::8        13936525     18.12%    100.00% # Number of instructions fetched each cycle (Total)
system.switch_cpus0.fetch.rateDist::overflows            0      0.00%    100.00% # Number of instructions fetched each cycle (Total)
system.switch_cpus0.fetch.rateDist::min_value            0                       # Number of instructions fetched each cycle (Total)
system.switch_cpus0.fetch.rateDist::max_value            8                       # Number of instructions fetched each cycle (Total)
system.switch_cpus0.fetch.rateDist::total     76902357                       # Number of instructions fetched each cycle (Total)
system.switch_cpus0.fetch.branchRate         0.364004                       # Number of branch fetches per cycle
system.switch_cpus0.fetch.rate               2.024765                       # Number of inst fetches per cycle
system.switch_cpus0.decode.IdleCycles        34585397                       # Number of cycles decode is idle
system.switch_cpus0.decode.BlockedCycles      3657133                       # Number of cycles decode is blocked
system.switch_cpus0.decode.RunCycles         31514013                       # Number of cycles decode is running
system.switch_cpus0.decode.UnblockCycles       125749                       # Number of cycles decode is unblocking
system.switch_cpus0.decode.SquashCycles       7020055                       # Number of cycles decode is squashing
system.switch_cpus0.decode.BranchResolved      3102114                       # Number of times decode resolved a branch
system.switch_cpus0.decode.BranchMispred         5207                       # Number of times decode detected a branch misprediction
system.switch_cpus0.decode.DecodedInsts     176955182                       # Number of instructions handled by decode
system.switch_cpus0.decode.SquashedInsts         1367                       # Number of squashed instructions handled by decode
system.switch_cpus0.rename.SquashCycles       7020055                       # Number of cycles rename is squashing
system.switch_cpus0.rename.IdleCycles        36040086                       # Number of cycles rename is idle
system.switch_cpus0.rename.BlockCycles        1248066                       # Number of cycles rename is blocking
system.switch_cpus0.rename.serializeStallCycles       420063                       # count of cycles rename stalled for serializing inst
system.switch_cpus0.rename.RunCycles         30171583                       # Number of cycles rename is running
system.switch_cpus0.rename.UnblockCycles      2002495                       # Number of cycles rename is unblocking
system.switch_cpus0.rename.RenamedInsts     172276987                       # Number of instructions processed by rename
system.switch_cpus0.rename.ROBFullEvents           24                       # Number of times rename has blocked due to ROB full
system.switch_cpus0.rename.IQFullEvents        690656                       # Number of times rename has blocked due to IQ full
system.switch_cpus0.rename.LSQFullEvents       802677                       # Number of times rename has blocked due to LSQ full
system.switch_cpus0.rename.RenamedOperands    228764569                       # Number of destination operands rename has renamed
system.switch_cpus0.rename.RenameLookups    784080459                       # Number of register rename lookups that rename has made
system.switch_cpus0.rename.int_rename_lookups    784080459                       # Number of integer rename lookups
system.switch_cpus0.rename.CommittedMaps    148896166                       # Number of HB maps that are committed
system.switch_cpus0.rename.UndoneMaps        79868288                       # Number of HB maps that are undone due to squashing
system.switch_cpus0.rename.serializingInsts        20309                       # count of serializing insts renamed
system.switch_cpus0.rename.tempSerializingInsts         9936                       # count of temporary serializing insts renamed
system.switch_cpus0.rename.skidInsts          5362443                       # count of insts added to the skid buffer
system.switch_cpus0.memDep0.insertedLoads     26485771                       # Number of loads inserted to the mem dependence unit.
system.switch_cpus0.memDep0.insertedStores      5752533                       # Number of stores inserted to the mem dependence unit.
system.switch_cpus0.memDep0.conflictingLoads        97230                       # Number of conflicting loads.
system.switch_cpus0.memDep0.conflictingStores      1897124                       # Number of conflicting stores.
system.switch_cpus0.iq.iqInstsAdded         163041015                       # Number of instructions added to the IQ (excludes non-spec)
system.switch_cpus0.iq.iqNonSpecInstsAdded        19858                       # Number of non-speculative instructions added to the IQ
system.switch_cpus0.iq.iqInstsIssued        137643521                       # Number of instructions issued
system.switch_cpus0.iq.iqSquashedInstsIssued       176052                       # Number of squashed instructions issued
system.switch_cpus0.iq.iqSquashedInstsExamined     48880546                       # Number of squashed instructions iterated over during squash; mainly for profiling
system.switch_cpus0.iq.iqSquashedOperandsExamined    134083135                       # Number of squashed operands that are examined and possibly removed from graph
system.switch_cpus0.iq.iqSquashedNonSpecRemoved           14                       # Number of squashed non-spec instructions that were removed
system.switch_cpus0.iq.issued_per_cycle::samples     76902357                       # Number of insts issued each cycle
system.switch_cpus0.iq.issued_per_cycle::mean     1.789848                       # Number of insts issued each cycle
system.switch_cpus0.iq.issued_per_cycle::stdev     1.840879                       # Number of insts issued each cycle
system.switch_cpus0.iq.issued_per_cycle::underflows            0      0.00%      0.00% # Number of insts issued each cycle
system.switch_cpus0.iq.issued_per_cycle::0     26552941     34.53%     34.53% # Number of insts issued each cycle
system.switch_cpus0.iq.issued_per_cycle::1     14384992     18.71%     53.23% # Number of insts issued each cycle
system.switch_cpus0.iq.issued_per_cycle::2     12515238     16.27%     69.51% # Number of insts issued each cycle
system.switch_cpus0.iq.issued_per_cycle::3      7670926      9.97%     79.48% # Number of insts issued each cycle
system.switch_cpus0.iq.issued_per_cycle::4      8026306     10.44%     89.92% # Number of insts issued each cycle
system.switch_cpus0.iq.issued_per_cycle::5      4724956      6.14%     96.06% # Number of insts issued each cycle
system.switch_cpus0.iq.issued_per_cycle::6      2087055      2.71%     98.78% # Number of insts issued each cycle
system.switch_cpus0.iq.issued_per_cycle::7       556603      0.72%     99.50% # Number of insts issued each cycle
system.switch_cpus0.iq.issued_per_cycle::8       383340      0.50%    100.00% # Number of insts issued each cycle
system.switch_cpus0.iq.issued_per_cycle::overflows            0      0.00%    100.00% # Number of insts issued each cycle
system.switch_cpus0.iq.issued_per_cycle::min_value            0                       # Number of insts issued each cycle
system.switch_cpus0.iq.issued_per_cycle::max_value            8                       # Number of insts issued each cycle
system.switch_cpus0.iq.issued_per_cycle::total     76902357                       # Number of insts issued each cycle
system.switch_cpus0.iq.fu_full::No_OpClass            0      0.00%      0.00% # attempts to use FU when none available
system.switch_cpus0.iq.fu_full::IntAlu         541511     66.34%     66.34% # attempts to use FU when none available
system.switch_cpus0.iq.fu_full::IntMult             0      0.00%     66.34% # attempts to use FU when none available
system.switch_cpus0.iq.fu_full::IntDiv              0      0.00%     66.34% # attempts to use FU when none available
system.switch_cpus0.iq.fu_full::FloatAdd            0      0.00%     66.34% # attempts to use FU when none available
system.switch_cpus0.iq.fu_full::FloatCmp            0      0.00%     66.34% # attempts to use FU when none available
system.switch_cpus0.iq.fu_full::FloatCvt            0      0.00%     66.34% # attempts to use FU when none available
system.switch_cpus0.iq.fu_full::FloatMult            0      0.00%     66.34% # attempts to use FU when none available
system.switch_cpus0.iq.fu_full::FloatDiv            0      0.00%     66.34% # attempts to use FU when none available
system.switch_cpus0.iq.fu_full::FloatSqrt            0      0.00%     66.34% # attempts to use FU when none available
system.switch_cpus0.iq.fu_full::SimdAdd             0      0.00%     66.34% # attempts to use FU when none available
system.switch_cpus0.iq.fu_full::SimdAddAcc            0      0.00%     66.34% # attempts to use FU when none available
system.switch_cpus0.iq.fu_full::SimdAlu             0      0.00%     66.34% # attempts to use FU when none available
system.switch_cpus0.iq.fu_full::SimdCmp             0      0.00%     66.34% # attempts to use FU when none available
system.switch_cpus0.iq.fu_full::SimdCvt             0      0.00%     66.34% # attempts to use FU when none available
system.switch_cpus0.iq.fu_full::SimdMisc            0      0.00%     66.34% # attempts to use FU when none available
system.switch_cpus0.iq.fu_full::SimdMult            0      0.00%     66.34% # attempts to use FU when none available
system.switch_cpus0.iq.fu_full::SimdMultAcc            0      0.00%     66.34% # attempts to use FU when none available
system.switch_cpus0.iq.fu_full::SimdShift            0      0.00%     66.34% # attempts to use FU when none available
system.switch_cpus0.iq.fu_full::SimdShiftAcc            0      0.00%     66.34% # attempts to use FU when none available
system.switch_cpus0.iq.fu_full::SimdSqrt            0      0.00%     66.34% # attempts to use FU when none available
system.switch_cpus0.iq.fu_full::SimdFloatAdd            0      0.00%     66.34% # attempts to use FU when none available
system.switch_cpus0.iq.fu_full::SimdFloatAlu            0      0.00%     66.34% # attempts to use FU when none available
system.switch_cpus0.iq.fu_full::SimdFloatCmp            0      0.00%     66.34% # attempts to use FU when none available
system.switch_cpus0.iq.fu_full::SimdFloatCvt            0      0.00%     66.34% # attempts to use FU when none available
system.switch_cpus0.iq.fu_full::SimdFloatDiv            0      0.00%     66.34% # attempts to use FU when none available
system.switch_cpus0.iq.fu_full::SimdFloatMisc            0      0.00%     66.34% # attempts to use FU when none available
system.switch_cpus0.iq.fu_full::SimdFloatMult            0      0.00%     66.34% # attempts to use FU when none available
system.switch_cpus0.iq.fu_full::SimdFloatMultAcc            0      0.00%     66.34% # attempts to use FU when none available
system.switch_cpus0.iq.fu_full::SimdFloatSqrt            0      0.00%     66.34% # attempts to use FU when none available
system.switch_cpus0.iq.fu_full::MemRead        173642     21.27%     87.62% # attempts to use FU when none available
system.switch_cpus0.iq.fu_full::MemWrite       101072     12.38%    100.00% # attempts to use FU when none available
system.switch_cpus0.iq.fu_full::IprAccess            0      0.00%    100.00% # attempts to use FU when none available
system.switch_cpus0.iq.fu_full::InstPrefetch            0      0.00%    100.00% # attempts to use FU when none available
system.switch_cpus0.iq.FU_type_0::No_OpClass            0      0.00%      0.00% # Type of FU issued
system.switch_cpus0.iq.FU_type_0::IntAlu    107976256     78.45%     78.45% # Type of FU issued
system.switch_cpus0.iq.FU_type_0::IntMult      1085244      0.79%     79.23% # Type of FU issued
system.switch_cpus0.iq.FU_type_0::IntDiv            0      0.00%     79.23% # Type of FU issued
system.switch_cpus0.iq.FU_type_0::FloatAdd            0      0.00%     79.23% # Type of FU issued
system.switch_cpus0.iq.FU_type_0::FloatCmp            0      0.00%     79.23% # Type of FU issued
system.switch_cpus0.iq.FU_type_0::FloatCvt            0      0.00%     79.23% # Type of FU issued
system.switch_cpus0.iq.FU_type_0::FloatMult            0      0.00%     79.23% # Type of FU issued
system.switch_cpus0.iq.FU_type_0::FloatDiv            0      0.00%     79.23% # Type of FU issued
system.switch_cpus0.iq.FU_type_0::FloatSqrt            0      0.00%     79.23% # Type of FU issued
system.switch_cpus0.iq.FU_type_0::SimdAdd            0      0.00%     79.23% # Type of FU issued
system.switch_cpus0.iq.FU_type_0::SimdAddAcc            0      0.00%     79.23% # Type of FU issued
system.switch_cpus0.iq.FU_type_0::SimdAlu            0      0.00%     79.23% # Type of FU issued
system.switch_cpus0.iq.FU_type_0::SimdCmp            0      0.00%     79.23% # Type of FU issued
system.switch_cpus0.iq.FU_type_0::SimdCvt            0      0.00%     79.23% # Type of FU issued
system.switch_cpus0.iq.FU_type_0::SimdMisc            0      0.00%     79.23% # Type of FU issued
system.switch_cpus0.iq.FU_type_0::SimdMult            0      0.00%     79.23% # Type of FU issued
system.switch_cpus0.iq.FU_type_0::SimdMultAcc            0      0.00%     79.23% # Type of FU issued
system.switch_cpus0.iq.FU_type_0::SimdShift            0      0.00%     79.23% # Type of FU issued
system.switch_cpus0.iq.FU_type_0::SimdShiftAcc            0      0.00%     79.23% # Type of FU issued
system.switch_cpus0.iq.FU_type_0::SimdSqrt            0      0.00%     79.23% # Type of FU issued
system.switch_cpus0.iq.FU_type_0::SimdFloatAdd            0      0.00%     79.23% # Type of FU issued
system.switch_cpus0.iq.FU_type_0::SimdFloatAlu            0      0.00%     79.23% # Type of FU issued
system.switch_cpus0.iq.FU_type_0::SimdFloatCmp            0      0.00%     79.23% # Type of FU issued
system.switch_cpus0.iq.FU_type_0::SimdFloatCvt            0      0.00%     79.23% # Type of FU issued
system.switch_cpus0.iq.FU_type_0::SimdFloatDiv            0      0.00%     79.23% # Type of FU issued
system.switch_cpus0.iq.FU_type_0::SimdFloatMisc         9921      0.01%     79.24% # Type of FU issued
system.switch_cpus0.iq.FU_type_0::SimdFloatMult            0      0.00%     79.24% # Type of FU issued
system.switch_cpus0.iq.FU_type_0::SimdFloatMultAcc            0      0.00%     79.24% # Type of FU issued
system.switch_cpus0.iq.FU_type_0::SimdFloatSqrt            0      0.00%     79.24% # Type of FU issued
system.switch_cpus0.iq.FU_type_0::MemRead     23675308     17.20%     96.44% # Type of FU issued
system.switch_cpus0.iq.FU_type_0::MemWrite      4896792      3.56%    100.00% # Type of FU issued
system.switch_cpus0.iq.FU_type_0::IprAccess            0      0.00%    100.00% # Type of FU issued
system.switch_cpus0.iq.FU_type_0::InstPrefetch            0      0.00%    100.00% # Type of FU issued
system.switch_cpus0.iq.FU_type_0::total     137643521                       # Type of FU issued
system.switch_cpus0.iq.rate                  1.762349                       # Inst issue rate
system.switch_cpus0.iq.fu_busy_cnt             816225                       # FU busy when requested
system.switch_cpus0.iq.fu_busy_rate          0.005930                       # FU busy rate (busy events/executed inst)
system.switch_cpus0.iq.int_inst_queue_reads    353181672                       # Number of integer instruction queue reads
system.switch_cpus0.iq.int_inst_queue_writes    211941827                       # Number of integer instruction queue writes
system.switch_cpus0.iq.int_inst_queue_wakeup_accesses    133154381                       # Number of integer instruction queue wakeup accesses
system.switch_cpus0.iq.fp_inst_queue_reads            0                       # Number of floating instruction queue reads
system.switch_cpus0.iq.fp_inst_queue_writes            0                       # Number of floating instruction queue writes
system.switch_cpus0.iq.fp_inst_queue_wakeup_accesses            0                       # Number of floating instruction queue wakeup accesses
system.switch_cpus0.iq.int_alu_accesses     138459746                       # Number of integer alu accesses
system.switch_cpus0.iq.fp_alu_accesses              0                       # Number of floating point alu accesses
system.switch_cpus0.iew.lsq.thread0.forwLoads       338258                       # Number of loads that had data forwarded from stores
system.switch_cpus0.iew.lsq.thread0.invAddrLoads            0                       # Number of loads ignored due to an invalid address
system.switch_cpus0.iew.lsq.thread0.squashedLoads      7555694                       # Number of loads squashed
system.switch_cpus0.iew.lsq.thread0.ignoredResponses          933                       # Number of memory responses ignored because the instruction is squashed
system.switch_cpus0.iew.lsq.thread0.memOrderViolation          408                       # Number of memory ordering violations
system.switch_cpus0.iew.lsq.thread0.squashedStores      1399175                       # Number of stores squashed
system.switch_cpus0.iew.lsq.thread0.invAddrSwpfs            0                       # Number of software prefetches ignored due to an invalid address
system.switch_cpus0.iew.lsq.thread0.blockedLoads            0                       # Number of blocked loads due to partial load-store forwarding
system.switch_cpus0.iew.lsq.thread0.rescheduledLoads            0                       # Number of loads that were rescheduled
system.switch_cpus0.iew.lsq.thread0.cacheBlocked            0                       # Number of times an access to memory failed due to the cache being blocked
system.switch_cpus0.iew.iewIdleCycles               0                       # Number of cycles IEW is idle
system.switch_cpus0.iew.iewSquashCycles       7020055                       # Number of cycles IEW is squashing
system.switch_cpus0.iew.iewBlockCycles         672341                       # Number of cycles IEW is blocking
system.switch_cpus0.iew.iewUnblockCycles        57508                       # Number of cycles IEW is unblocking
system.switch_cpus0.iew.iewDispatchedInsts    163060876                       # Number of instructions dispatched to IQ
system.switch_cpus0.iew.iewDispSquashedInsts       190248                       # Number of squashed instructions skipped by dispatch
system.switch_cpus0.iew.iewDispLoadInsts     26485771                       # Number of dispatched load instructions
system.switch_cpus0.iew.iewDispStoreInsts      5752533                       # Number of dispatched store instructions
system.switch_cpus0.iew.iewDispNonSpecInsts         9936                       # Number of dispatched non-speculative instructions
system.switch_cpus0.iew.iewIQFullEvents         30863                       # Number of times the IQ has become full, causing a stall
system.switch_cpus0.iew.iewLSQFullEvents          205                       # Number of times the LSQ has become full, causing a stall
system.switch_cpus0.iew.memOrderViolationEvents          408                       # Number of memory order violations
system.switch_cpus0.iew.predictedTakenIncorrect       959617                       # Number of branches that were predicted taken incorrectly
system.switch_cpus0.iew.predictedNotTakenIncorrect      1061897                       # Number of branches that were predicted not taken incorrectly
system.switch_cpus0.iew.branchMispredicts      2021514                       # Number of branch mispredicts detected at execute
system.switch_cpus0.iew.iewExecutedInsts    135064411                       # Number of executed instructions
system.switch_cpus0.iew.iewExecLoadInsts     22758565                       # Number of load instructions executed
system.switch_cpus0.iew.iewExecSquashedInsts      2579106                       # Number of squashed instructions skipped in execute
system.switch_cpus0.iew.exec_swp                    0                       # number of swp insts executed
system.switch_cpus0.iew.exec_nop                    3                       # number of nop insts executed
system.switch_cpus0.iew.exec_refs            27535883                       # number of memory reference insts executed
system.switch_cpus0.iew.exec_branches        20414313                       # Number of branches executed
system.switch_cpus0.iew.exec_stores           4777318                       # Number of stores executed
system.switch_cpus0.iew.exec_rate            1.729327                       # Inst execution rate
system.switch_cpus0.iew.wb_sent             133303567                       # cumulative count of insts sent to commit
system.switch_cpus0.iew.wb_count            133154381                       # cumulative count of insts written-back
system.switch_cpus0.iew.wb_producers         81827498                       # num instructions producing a value
system.switch_cpus0.iew.wb_consumers        199694554                       # num instructions consuming a value
system.switch_cpus0.iew.wb_penalized                0                       # number of instrctions required to write to 'other' IQ
system.switch_cpus0.iew.wb_rate              1.704871                       # insts written-back per cycle
system.switch_cpus0.iew.wb_fanout            0.409763                       # average fanout of values written-back
system.switch_cpus0.iew.wb_penalized_rate            0                       # fraction of instructions written-back that wrote to 'other' IQ
system.switch_cpus0.commit.commitCommittedInsts    100000006                       # The number of committed instructions
system.switch_cpus0.commit.commitCommittedOps    113611589                       # The number of committed instructions
system.switch_cpus0.commit.commitSquashedInsts     49449869                       # The number of squashed insts skipped by commit
system.switch_cpus0.commit.commitNonSpecStalls        19844                       # The number of times commit has been forced to stall to communicate backwards
system.switch_cpus0.commit.branchMispredicts      1807045                       # The number of times a branch was mispredicted
system.switch_cpus0.commit.committed_per_cycle::samples     69882302                       # Number of insts commited each cycle
system.switch_cpus0.commit.committed_per_cycle::mean     1.625756                       # Number of insts commited each cycle
system.switch_cpus0.commit.committed_per_cycle::stdev     2.320355                       # Number of insts commited each cycle
system.switch_cpus0.commit.committed_per_cycle::underflows            0      0.00%      0.00% # Number of insts commited each cycle
system.switch_cpus0.commit.committed_per_cycle::0     32068778     45.89%     45.89% # Number of insts commited each cycle
system.switch_cpus0.commit.committed_per_cycle::1     14850920     21.25%     67.14% # Number of insts commited each cycle
system.switch_cpus0.commit.committed_per_cycle::2      8309956     11.89%     79.03% # Number of insts commited each cycle
system.switch_cpus0.commit.committed_per_cycle::3      2813633      4.03%     83.06% # Number of insts commited each cycle
system.switch_cpus0.commit.committed_per_cycle::4      2691497      3.85%     86.91% # Number of insts commited each cycle
system.switch_cpus0.commit.committed_per_cycle::5      1119950      1.60%     88.51% # Number of insts commited each cycle
system.switch_cpus0.commit.committed_per_cycle::6      3005141      4.30%     92.81% # Number of insts commited each cycle
system.switch_cpus0.commit.committed_per_cycle::7       876142      1.25%     94.07% # Number of insts commited each cycle
system.switch_cpus0.commit.committed_per_cycle::8      4146285      5.93%    100.00% # Number of insts commited each cycle
system.switch_cpus0.commit.committed_per_cycle::overflows            0      0.00%    100.00% # Number of insts commited each cycle
system.switch_cpus0.commit.committed_per_cycle::min_value            0                       # Number of insts commited each cycle
system.switch_cpus0.commit.committed_per_cycle::max_value            8                       # Number of insts commited each cycle
system.switch_cpus0.commit.committed_per_cycle::total     69882302                       # Number of insts commited each cycle
system.switch_cpus0.commit.committedInsts    100000006                       # Number of instructions committed
system.switch_cpus0.commit.committedOps     113611589                       # Number of ops (including micro ops) committed
system.switch_cpus0.commit.swp_count                0                       # Number of s/w prefetches committed
system.switch_cpus0.commit.refs              23283426                       # Number of memory references committed
system.switch_cpus0.commit.loads             18930071                       # Number of loads committed
system.switch_cpus0.commit.membars               9922                       # Number of memory barriers committed
system.switch_cpus0.commit.branches          17789106                       # Number of branches committed
system.switch_cpus0.commit.fp_insts                 0                       # Number of committed floating point instructions.
system.switch_cpus0.commit.int_insts         99179499                       # Number of committed integer instructions.
system.switch_cpus0.commit.function_calls      1536069                       # Number of function calls committed.
system.switch_cpus0.commit.bw_lim_events      4146285                       # number cycles where commit BW limit reached
system.switch_cpus0.commit.bw_limited               0                       # number of insts not committed due to BW limits
system.switch_cpus0.rob.rob_reads           228797475                       # The number of ROB reads
system.switch_cpus0.rob.rob_writes          333148856                       # The number of ROB writes
system.switch_cpus0.timesIdled                  28595                       # Number of times that the entire CPU went into an idle state and unscheduled itself
system.switch_cpus0.idleCycles                1199944                       # Total number of cycles that the CPU has spent unscheduled due to idling
system.switch_cpus0.committedInsts          100000006                       # Number of Instructions Simulated
system.switch_cpus0.committedOps            113611589                       # Number of Ops (including micro ops) Simulated
system.switch_cpus0.committedInsts_total    100000006                       # Number of Instructions Simulated
system.switch_cpus0.cpi                      0.781023                       # CPI: Cycles Per Instruction
system.switch_cpus0.cpi_total                0.781023                       # CPI: Total CPI of All Threads
system.switch_cpus0.ipc                      1.280372                       # IPC: Instructions Per Cycle
system.switch_cpus0.ipc_total                1.280372                       # IPC: Total IPC of All Threads
system.switch_cpus0.int_regfile_reads       624778903                       # number of integer regfile reads
system.switch_cpus0.int_regfile_writes      174542439                       # number of integer regfile writes
system.switch_cpus0.misc_regfile_reads      182369552                       # number of misc regfile reads
system.switch_cpus0.misc_regfile_writes         19844                       # number of misc regfile writes
system.switch_cpus1.dtb.inst_hits                   0                       # ITB inst hits
system.switch_cpus1.dtb.inst_misses                 0                       # ITB inst misses
system.switch_cpus1.dtb.read_hits                   0                       # DTB read hits
system.switch_cpus1.dtb.read_misses                 0                       # DTB read misses
system.switch_cpus1.dtb.write_hits                  0                       # DTB write hits
system.switch_cpus1.dtb.write_misses                0                       # DTB write misses
system.switch_cpus1.dtb.flush_tlb                   0                       # Number of times complete TLB was flushed
system.switch_cpus1.dtb.flush_tlb_mva               0                       # Number of times TLB was flushed by MVA
system.switch_cpus1.dtb.flush_tlb_mva_asid            0                       # Number of times TLB was flushed by MVA & ASID
system.switch_cpus1.dtb.flush_tlb_asid              0                       # Number of times TLB was flushed by ASID
system.switch_cpus1.dtb.flush_entries               0                       # Number of entries that have been flushed from TLB
system.switch_cpus1.dtb.align_faults                0                       # Number of TLB faults due to alignment restrictions
system.switch_cpus1.dtb.prefetch_faults             0                       # Number of TLB faults due to prefetch
system.switch_cpus1.dtb.domain_faults               0                       # Number of TLB faults due to domain restrictions
system.switch_cpus1.dtb.perms_faults                0                       # Number of TLB faults due to permissions restrictions
system.switch_cpus1.dtb.read_accesses               0                       # DTB read accesses
system.switch_cpus1.dtb.write_accesses              0                       # DTB write accesses
system.switch_cpus1.dtb.inst_accesses               0                       # ITB inst accesses
system.switch_cpus1.dtb.hits                        0                       # DTB hits
system.switch_cpus1.dtb.misses                      0                       # DTB misses
system.switch_cpus1.dtb.accesses                    0                       # DTB accesses
system.switch_cpus1.itb.inst_hits                   0                       # ITB inst hits
system.switch_cpus1.itb.inst_misses                 0                       # ITB inst misses
system.switch_cpus1.itb.read_hits                   0                       # DTB read hits
system.switch_cpus1.itb.read_misses                 0                       # DTB read misses
system.switch_cpus1.itb.write_hits                  0                       # DTB write hits
system.switch_cpus1.itb.write_misses                0                       # DTB write misses
system.switch_cpus1.itb.flush_tlb                   0                       # Number of times complete TLB was flushed
system.switch_cpus1.itb.flush_tlb_mva               0                       # Number of times TLB was flushed by MVA
system.switch_cpus1.itb.flush_tlb_mva_asid            0                       # Number of times TLB was flushed by MVA & ASID
system.switch_cpus1.itb.flush_tlb_asid              0                       # Number of times TLB was flushed by ASID
system.switch_cpus1.itb.flush_entries               0                       # Number of entries that have been flushed from TLB
system.switch_cpus1.itb.align_faults                0                       # Number of TLB faults due to alignment restrictions
system.switch_cpus1.itb.prefetch_faults             0                       # Number of TLB faults due to prefetch
system.switch_cpus1.itb.domain_faults               0                       # Number of TLB faults due to domain restrictions
system.switch_cpus1.itb.perms_faults                0                       # Number of TLB faults due to permissions restrictions
system.switch_cpus1.itb.read_accesses               0                       # DTB read accesses
system.switch_cpus1.itb.write_accesses              0                       # DTB write accesses
system.switch_cpus1.itb.inst_accesses               0                       # ITB inst accesses
system.switch_cpus1.itb.hits                        0                       # DTB hits
system.switch_cpus1.itb.misses                      0                       # DTB misses
system.switch_cpus1.itb.accesses                    0                       # DTB accesses
system.cpu1.workload.num_syscalls                   0                       # Number of system calls
system.switch_cpus1.numCycles                78102301                       # number of cpu cycles simulated
system.switch_cpus1.numWorkItemsStarted             0                       # number of work items this cpu started
system.switch_cpus1.numWorkItemsCompleted            0                       # number of work items this cpu completed
system.switch_cpus1.BPredUnit.lookups        28195749                       # Number of BP lookups
system.switch_cpus1.BPredUnit.condPredicted     22914734                       # Number of conditional branches predicted
system.switch_cpus1.BPredUnit.condIncorrect      1923519                       # Number of conditional branches incorrect
system.switch_cpus1.BPredUnit.BTBLookups     11761506                       # Number of BTB lookups
system.switch_cpus1.BPredUnit.BTBHits        10992781                       # Number of BTB hits
system.switch_cpus1.BPredUnit.BTBCorrect            0                       # Number of correct BTB predictions (this stat may not work properly.
system.switch_cpus1.BPredUnit.usedRAS         2972682                       # Number of times the RAS was used to get a target.
system.switch_cpus1.BPredUnit.RASInCorrect        81606                       # Number of incorrect RAS predictions.
system.switch_cpus1.fetch.icacheStallCycles     28282739                       # Number of cycles fetch is stalled on an Icache miss
system.switch_cpus1.fetch.Insts             156352084                       # Number of instructions fetch has processed
system.switch_cpus1.fetch.Branches           28195749                       # Number of branches that fetch encountered
system.switch_cpus1.fetch.predictedBranches     13965463                       # Number of branches that fetch has predicted taken
system.switch_cpus1.fetch.Cycles             34381828                       # Number of cycles fetch has run and was not squashing or blocked
system.switch_cpus1.fetch.SquashCycles       10332544                       # Number of cycles fetch has spent squashing
system.switch_cpus1.fetch.BlockedCycles       5729795                       # Number of cycles fetch has spent blocked
system.switch_cpus1.fetch.PendingTrapStallCycles           12                       # Number of stall cycles due to pending traps
system.switch_cpus1.fetch.CacheLines         13852031                       # Number of cache lines fetched
system.switch_cpus1.fetch.IcacheSquashes       827740                       # Number of outstanding Icache misses that were squashed
system.switch_cpus1.fetch.rateDist::samples     76760604                       # Number of instructions fetched each cycle (Total)
system.switch_cpus1.fetch.rateDist::mean     2.516470                       # Number of instructions fetched each cycle (Total)
system.switch_cpus1.fetch.rateDist::stdev     3.306760                       # Number of instructions fetched each cycle (Total)
system.switch_cpus1.fetch.rateDist::underflows            0      0.00%      0.00% # Number of instructions fetched each cycle (Total)
system.switch_cpus1.fetch.rateDist::0        42378776     55.21%     55.21% # Number of instructions fetched each cycle (Total)
system.switch_cpus1.fetch.rateDist::1         3022309      3.94%     59.15% # Number of instructions fetched each cycle (Total)
system.switch_cpus1.fetch.rateDist::2         2434657      3.17%     62.32% # Number of instructions fetched each cycle (Total)
system.switch_cpus1.fetch.rateDist::3         5937865      7.74%     70.05% # Number of instructions fetched each cycle (Total)
system.switch_cpus1.fetch.rateDist::4         1603237      2.09%     72.14% # Number of instructions fetched each cycle (Total)
system.switch_cpus1.fetch.rateDist::5         2062180      2.69%     74.83% # Number of instructions fetched each cycle (Total)
system.switch_cpus1.fetch.rateDist::6         1498780      1.95%     76.78% # Number of instructions fetched each cycle (Total)
system.switch_cpus1.fetch.rateDist::7          838419      1.09%     77.87% # Number of instructions fetched each cycle (Total)
system.switch_cpus1.fetch.rateDist::8        16984381     22.13%    100.00% # Number of instructions fetched each cycle (Total)
system.switch_cpus1.fetch.rateDist::overflows            0      0.00%    100.00% # Number of instructions fetched each cycle (Total)
system.switch_cpus1.fetch.rateDist::min_value            0                       # Number of instructions fetched each cycle (Total)
system.switch_cpus1.fetch.rateDist::max_value            8                       # Number of instructions fetched each cycle (Total)
system.switch_cpus1.fetch.rateDist::total     76760604                       # Number of instructions fetched each cycle (Total)
system.switch_cpus1.fetch.branchRate         0.361010                       # Number of branch fetches per cycle
system.switch_cpus1.fetch.rate               2.001888                       # Number of inst fetches per cycle
system.switch_cpus1.decode.IdleCycles        29590536                       # Number of cycles decode is idle
system.switch_cpus1.decode.BlockedCycles      5556741                       # Number of cycles decode is blocked
system.switch_cpus1.decode.RunCycles         33061144                       # Number of cycles decode is running
system.switch_cpus1.decode.UnblockCycles       224175                       # Number of cycles decode is unblocking
system.switch_cpus1.decode.SquashCycles       8328003                       # Number of cycles decode is squashing
system.switch_cpus1.decode.BranchResolved      4816862                       # Number of times decode resolved a branch
system.switch_cpus1.decode.BranchMispred        38530                       # Number of times decode detected a branch misprediction
system.switch_cpus1.decode.DecodedInsts     186933228                       # Number of instructions handled by decode
system.switch_cpus1.decode.SquashedInsts        72744                       # Number of squashed instructions handled by decode
system.switch_cpus1.rename.SquashCycles       8328003                       # Number of cycles rename is squashing
system.switch_cpus1.rename.IdleCycles        31756977                       # Number of cycles rename is idle
system.switch_cpus1.rename.BlockCycles        1224889                       # Number of cycles rename is blocking
system.switch_cpus1.rename.serializeStallCycles      1135841                       # count of cycles rename stalled for serializing inst
system.switch_cpus1.rename.RunCycles         31067370                       # Number of cycles rename is running
system.switch_cpus1.rename.UnblockCycles      3247519                       # Number of cycles rename is unblocking
system.switch_cpus1.rename.RenamedInsts     180341267                       # Number of instructions processed by rename
system.switch_cpus1.rename.ROBFullEvents        28312                       # Number of times rename has blocked due to ROB full
system.switch_cpus1.rename.IQFullEvents       1344624                       # Number of times rename has blocked due to IQ full
system.switch_cpus1.rename.LSQFullEvents      1010586                       # Number of times rename has blocked due to LSQ full
system.switch_cpus1.rename.FullRegisterEvents          908                       # Number of times there has been no free registers
system.switch_cpus1.rename.RenamedOperands    252515989                       # Number of destination operands rename has renamed
system.switch_cpus1.rename.RenameLookups    841876952                       # Number of register rename lookups that rename has made
system.switch_cpus1.rename.int_rename_lookups    841876952                       # Number of integer rename lookups
system.switch_cpus1.rename.CommittedMaps    154738052                       # Number of HB maps that are committed
system.switch_cpus1.rename.UndoneMaps        97777906                       # Number of HB maps that are undone due to squashing
system.switch_cpus1.rename.serializingInsts        36849                       # count of serializing insts renamed
system.switch_cpus1.rename.tempSerializingInsts        20679                       # count of temporary serializing insts renamed
system.switch_cpus1.rename.skidInsts          8913146                       # count of insts added to the skid buffer
system.switch_cpus1.memDep0.insertedLoads     16812883                       # Number of loads inserted to the mem dependence unit.
system.switch_cpus1.memDep0.insertedStores      8564159                       # Number of stores inserted to the mem dependence unit.
system.switch_cpus1.memDep0.conflictingLoads       133867                       # Number of conflicting loads.
system.switch_cpus1.memDep0.conflictingStores      2573646                       # Number of conflicting stores.
system.switch_cpus1.iq.iqInstsAdded         170529773                       # Number of instructions added to the IQ (excludes non-spec)
system.switch_cpus1.iq.iqNonSpecInstsAdded        35428                       # Number of non-speculative instructions added to the IQ
system.switch_cpus1.iq.iqInstsIssued        135468942                       # Number of instructions issued
system.switch_cpus1.iq.iqSquashedInstsIssued       261958                       # Number of squashed instructions issued
system.switch_cpus1.iq.iqSquashedInstsExamined     58939537                       # Number of squashed instructions iterated over during squash; mainly for profiling
system.switch_cpus1.iq.iqSquashedOperandsExamined    179929863                       # Number of squashed operands that are examined and possibly removed from graph
system.switch_cpus1.iq.iqSquashedNonSpecRemoved         5456                       # Number of squashed non-spec instructions that were removed
system.switch_cpus1.iq.issued_per_cycle::samples     76760604                       # Number of insts issued each cycle
system.switch_cpus1.iq.issued_per_cycle::mean     1.764824                       # Number of insts issued each cycle
system.switch_cpus1.iq.issued_per_cycle::stdev     1.888780                       # Number of insts issued each cycle
system.switch_cpus1.iq.issued_per_cycle::underflows            0      0.00%      0.00% # Number of insts issued each cycle
system.switch_cpus1.iq.issued_per_cycle::0     26594598     34.65%     34.65% # Number of insts issued each cycle
system.switch_cpus1.iq.issued_per_cycle::1     16587581     21.61%     56.26% # Number of insts issued each cycle
system.switch_cpus1.iq.issued_per_cycle::2     10741397     13.99%     70.25% # Number of insts issued each cycle
system.switch_cpus1.iq.issued_per_cycle::3      8023722     10.45%     80.70% # Number of insts issued each cycle
system.switch_cpus1.iq.issued_per_cycle::4      6932464      9.03%     89.73% # Number of insts issued each cycle
system.switch_cpus1.iq.issued_per_cycle::5      3575145      4.66%     94.39% # Number of insts issued each cycle
system.switch_cpus1.iq.issued_per_cycle::6      3074300      4.01%     98.40% # Number of insts issued each cycle
system.switch_cpus1.iq.issued_per_cycle::7       575156      0.75%     99.15% # Number of insts issued each cycle
system.switch_cpus1.iq.issued_per_cycle::8       656241      0.85%    100.00% # Number of insts issued each cycle
system.switch_cpus1.iq.issued_per_cycle::overflows            0      0.00%    100.00% # Number of insts issued each cycle
system.switch_cpus1.iq.issued_per_cycle::min_value            0                       # Number of insts issued each cycle
system.switch_cpus1.iq.issued_per_cycle::max_value            8                       # Number of insts issued each cycle
system.switch_cpus1.iq.issued_per_cycle::total     76760604                       # Number of insts issued each cycle
system.switch_cpus1.iq.fu_full::No_OpClass            0      0.00%      0.00% # attempts to use FU when none available
system.switch_cpus1.iq.fu_full::IntAlu         793168     70.97%     70.97% # attempts to use FU when none available
system.switch_cpus1.iq.fu_full::IntMult            13      0.00%     70.97% # attempts to use FU when none available
system.switch_cpus1.iq.fu_full::IntDiv              0      0.00%     70.97% # attempts to use FU when none available
system.switch_cpus1.iq.fu_full::FloatAdd            0      0.00%     70.97% # attempts to use FU when none available
system.switch_cpus1.iq.fu_full::FloatCmp            0      0.00%     70.97% # attempts to use FU when none available
system.switch_cpus1.iq.fu_full::FloatCvt            0      0.00%     70.97% # attempts to use FU when none available
system.switch_cpus1.iq.fu_full::FloatMult            0      0.00%     70.97% # attempts to use FU when none available
system.switch_cpus1.iq.fu_full::FloatDiv            0      0.00%     70.97% # attempts to use FU when none available
system.switch_cpus1.iq.fu_full::FloatSqrt            0      0.00%     70.97% # attempts to use FU when none available
system.switch_cpus1.iq.fu_full::SimdAdd             0      0.00%     70.97% # attempts to use FU when none available
system.switch_cpus1.iq.fu_full::SimdAddAcc            0      0.00%     70.97% # attempts to use FU when none available
system.switch_cpus1.iq.fu_full::SimdAlu             0      0.00%     70.97% # attempts to use FU when none available
system.switch_cpus1.iq.fu_full::SimdCmp             0      0.00%     70.97% # attempts to use FU when none available
system.switch_cpus1.iq.fu_full::SimdCvt             0      0.00%     70.97% # attempts to use FU when none available
system.switch_cpus1.iq.fu_full::SimdMisc            0      0.00%     70.97% # attempts to use FU when none available
system.switch_cpus1.iq.fu_full::SimdMult            0      0.00%     70.97% # attempts to use FU when none available
system.switch_cpus1.iq.fu_full::SimdMultAcc            0      0.00%     70.97% # attempts to use FU when none available
system.switch_cpus1.iq.fu_full::SimdShift            0      0.00%     70.97% # attempts to use FU when none available
system.switch_cpus1.iq.fu_full::SimdShiftAcc            0      0.00%     70.97% # attempts to use FU when none available
system.switch_cpus1.iq.fu_full::SimdSqrt            0      0.00%     70.97% # attempts to use FU when none available
system.switch_cpus1.iq.fu_full::SimdFloatAdd            0      0.00%     70.97% # attempts to use FU when none available
system.switch_cpus1.iq.fu_full::SimdFloatAlu            0      0.00%     70.97% # attempts to use FU when none available
system.switch_cpus1.iq.fu_full::SimdFloatCmp            0      0.00%     70.97% # attempts to use FU when none available
system.switch_cpus1.iq.fu_full::SimdFloatCvt            0      0.00%     70.97% # attempts to use FU when none available
system.switch_cpus1.iq.fu_full::SimdFloatDiv            0      0.00%     70.97% # attempts to use FU when none available
system.switch_cpus1.iq.fu_full::SimdFloatMisc            0      0.00%     70.97% # attempts to use FU when none available
system.switch_cpus1.iq.fu_full::SimdFloatMult            0      0.00%     70.97% # attempts to use FU when none available
system.switch_cpus1.iq.fu_full::SimdFloatMultAcc            0      0.00%     70.97% # attempts to use FU when none available
system.switch_cpus1.iq.fu_full::SimdFloatSqrt            0      0.00%     70.97% # attempts to use FU when none available
system.switch_cpus1.iq.fu_full::MemRead        162603     14.55%     85.52% # attempts to use FU when none available
system.switch_cpus1.iq.fu_full::MemWrite       161815     14.48%    100.00% # attempts to use FU when none available
system.switch_cpus1.iq.fu_full::IprAccess            0      0.00%    100.00% # attempts to use FU when none available
system.switch_cpus1.iq.fu_full::InstPrefetch            0      0.00%    100.00% # attempts to use FU when none available
system.switch_cpus1.iq.FU_type_0::No_OpClass            0      0.00%      0.00% # Type of FU issued
system.switch_cpus1.iq.FU_type_0::IntAlu    112869200     83.32%     83.32% # Type of FU issued
system.switch_cpus1.iq.FU_type_0::IntMult      1927978      1.42%     84.74% # Type of FU issued
system.switch_cpus1.iq.FU_type_0::IntDiv            0      0.00%     84.74% # Type of FU issued
system.switch_cpus1.iq.FU_type_0::FloatAdd            0      0.00%     84.74% # Type of FU issued
system.switch_cpus1.iq.FU_type_0::FloatCmp            0      0.00%     84.74% # Type of FU issued
system.switch_cpus1.iq.FU_type_0::FloatCvt            0      0.00%     84.74% # Type of FU issued
system.switch_cpus1.iq.FU_type_0::FloatMult            0      0.00%     84.74% # Type of FU issued
system.switch_cpus1.iq.FU_type_0::FloatDiv            0      0.00%     84.74% # Type of FU issued
system.switch_cpus1.iq.FU_type_0::FloatSqrt            0      0.00%     84.74% # Type of FU issued
system.switch_cpus1.iq.FU_type_0::SimdAdd            0      0.00%     84.74% # Type of FU issued
system.switch_cpus1.iq.FU_type_0::SimdAddAcc            0      0.00%     84.74% # Type of FU issued
system.switch_cpus1.iq.FU_type_0::SimdAlu            0      0.00%     84.74% # Type of FU issued
system.switch_cpus1.iq.FU_type_0::SimdCmp            0      0.00%     84.74% # Type of FU issued
system.switch_cpus1.iq.FU_type_0::SimdCvt            0      0.00%     84.74% # Type of FU issued
system.switch_cpus1.iq.FU_type_0::SimdMisc            0      0.00%     84.74% # Type of FU issued
system.switch_cpus1.iq.FU_type_0::SimdMult            0      0.00%     84.74% # Type of FU issued
system.switch_cpus1.iq.FU_type_0::SimdMultAcc            0      0.00%     84.74% # Type of FU issued
system.switch_cpus1.iq.FU_type_0::SimdShift            0      0.00%     84.74% # Type of FU issued
system.switch_cpus1.iq.FU_type_0::SimdShiftAcc            0      0.00%     84.74% # Type of FU issued
system.switch_cpus1.iq.FU_type_0::SimdSqrt            0      0.00%     84.74% # Type of FU issued
system.switch_cpus1.iq.FU_type_0::SimdFloatAdd            0      0.00%     84.74% # Type of FU issued
system.switch_cpus1.iq.FU_type_0::SimdFloatAlu            0      0.00%     84.74% # Type of FU issued
system.switch_cpus1.iq.FU_type_0::SimdFloatCmp            0      0.00%     84.74% # Type of FU issued
system.switch_cpus1.iq.FU_type_0::SimdFloatCvt            0      0.00%     84.74% # Type of FU issued
system.switch_cpus1.iq.FU_type_0::SimdFloatDiv            0      0.00%     84.74% # Type of FU issued
system.switch_cpus1.iq.FU_type_0::SimdFloatMisc        14986      0.01%     84.75% # Type of FU issued
system.switch_cpus1.iq.FU_type_0::SimdFloatMult            0      0.00%     84.75% # Type of FU issued
system.switch_cpus1.iq.FU_type_0::SimdFloatMultAcc            0      0.00%     84.75% # Type of FU issued
system.switch_cpus1.iq.FU_type_0::SimdFloatSqrt            0      0.00%     84.75% # Type of FU issued
system.switch_cpus1.iq.FU_type_0::MemRead     13440178      9.92%     94.67% # Type of FU issued
system.switch_cpus1.iq.FU_type_0::MemWrite      7216600      5.33%    100.00% # Type of FU issued
system.switch_cpus1.iq.FU_type_0::IprAccess            0      0.00%    100.00% # Type of FU issued
system.switch_cpus1.iq.FU_type_0::InstPrefetch            0      0.00%    100.00% # Type of FU issued
system.switch_cpus1.iq.FU_type_0::total     135468942                       # Type of FU issued
system.switch_cpus1.iq.rate                  1.734506                       # Inst issue rate
system.switch_cpus1.iq.fu_busy_cnt            1117599                       # FU busy when requested
system.switch_cpus1.iq.fu_busy_rate          0.008250                       # FU busy rate (busy events/executed inst)
system.switch_cpus1.iq.int_inst_queue_reads    349078042                       # Number of integer instruction queue reads
system.switch_cpus1.iq.int_inst_queue_writes    229505331                       # Number of integer instruction queue writes
system.switch_cpus1.iq.int_inst_queue_wakeup_accesses    132007442                       # Number of integer instruction queue wakeup accesses
system.switch_cpus1.iq.fp_inst_queue_reads            0                       # Number of floating instruction queue reads
system.switch_cpus1.iq.fp_inst_queue_writes            0                       # Number of floating instruction queue writes
system.switch_cpus1.iq.fp_inst_queue_wakeup_accesses            0                       # Number of floating instruction queue wakeup accesses
system.switch_cpus1.iq.int_alu_accesses     136586541                       # Number of integer alu accesses
system.switch_cpus1.iq.fp_alu_accesses              0                       # Number of floating point alu accesses
system.switch_cpus1.iew.lsq.thread0.forwLoads       508567                       # Number of loads that had data forwarded from stores
system.switch_cpus1.iew.lsq.thread0.invAddrLoads            0                       # Number of loads ignored due to an invalid address
system.switch_cpus1.iew.lsq.thread0.squashedLoads      6630245                       # Number of loads squashed
system.switch_cpus1.iew.lsq.thread0.ignoredResponses         2665                       # Number of memory responses ignored because the instruction is squashed
system.switch_cpus1.iew.lsq.thread0.memOrderViolation          596                       # Number of memory ordering violations
system.switch_cpus1.iew.lsq.thread0.squashedStores      2196269                       # Number of stores squashed
system.switch_cpus1.iew.lsq.thread0.invAddrSwpfs            0                       # Number of software prefetches ignored due to an invalid address
system.switch_cpus1.iew.lsq.thread0.blockedLoads            0                       # Number of blocked loads due to partial load-store forwarding
system.switch_cpus1.iew.lsq.thread0.rescheduledLoads            0                       # Number of loads that were rescheduled
system.switch_cpus1.iew.lsq.thread0.cacheBlocked            0                       # Number of times an access to memory failed due to the cache being blocked
system.switch_cpus1.iew.iewIdleCycles               0                       # Number of cycles IEW is idle
system.switch_cpus1.iew.iewSquashCycles       8328003                       # Number of cycles IEW is squashing
system.switch_cpus1.iew.iewBlockCycles         492597                       # Number of cycles IEW is blocking
system.switch_cpus1.iew.iewUnblockCycles        73406                       # Number of cycles IEW is unblocking
system.switch_cpus1.iew.iewDispatchedInsts    170565202                       # Number of instructions dispatched to IQ
system.switch_cpus1.iew.iewDispSquashedInsts       373808                       # Number of squashed instructions skipped by dispatch
system.switch_cpus1.iew.iewDispLoadInsts     16812883                       # Number of dispatched load instructions
system.switch_cpus1.iew.iewDispStoreInsts      8564159                       # Number of dispatched store instructions
system.switch_cpus1.iew.iewDispNonSpecInsts        20442                       # Number of dispatched non-speculative instructions
system.switch_cpus1.iew.iewIQFullEvents         65867                       # Number of times the IQ has become full, causing a stall
system.switch_cpus1.iew.iewLSQFullEvents            0                       # Number of times the LSQ has become full, causing a stall
system.switch_cpus1.iew.memOrderViolationEvents          596                       # Number of memory order violations
system.switch_cpus1.iew.predictedTakenIncorrect      1147416                       # Number of branches that were predicted taken incorrectly
system.switch_cpus1.iew.predictedNotTakenIncorrect      1083734                       # Number of branches that were predicted not taken incorrectly
system.switch_cpus1.iew.branchMispredicts      2231150                       # Number of branch mispredicts detected at execute
system.switch_cpus1.iew.iewExecutedInsts    133305023                       # Number of executed instructions
system.switch_cpus1.iew.iewExecLoadInsts     12611012                       # Number of load instructions executed
system.switch_cpus1.iew.iewExecSquashedInsts      2163916                       # Number of squashed instructions skipped in execute
system.switch_cpus1.iew.exec_swp                    0                       # number of swp insts executed
system.switch_cpus1.iew.exec_nop                    1                       # number of nop insts executed
system.switch_cpus1.iew.exec_refs            19632409                       # number of memory reference insts executed
system.switch_cpus1.iew.exec_branches        18809023                       # Number of branches executed
system.switch_cpus1.iew.exec_stores           7021397                       # Number of stores executed
system.switch_cpus1.iew.exec_rate            1.706800                       # Inst execution rate
system.switch_cpus1.iew.wb_sent             132096198                       # cumulative count of insts sent to commit
system.switch_cpus1.iew.wb_count            132007442                       # cumulative count of insts written-back
system.switch_cpus1.iew.wb_producers         86023801                       # num instructions producing a value
system.switch_cpus1.iew.wb_consumers        242870866                       # num instructions consuming a value
system.switch_cpus1.iew.wb_penalized                0                       # number of instrctions required to write to 'other' IQ
system.switch_cpus1.iew.wb_rate              1.690186                       # insts written-back per cycle
system.switch_cpus1.iew.wb_fanout            0.354196                       # average fanout of values written-back
system.switch_cpus1.iew.wb_penalized_rate            0                       # fraction of instructions written-back that wrote to 'other' IQ
system.switch_cpus1.commit.commitCommittedInsts     90648598                       # The number of committed instructions
system.switch_cpus1.commit.commitCommittedOps    111323459                       # The number of committed instructions
system.switch_cpus1.commit.commitSquashedInsts     59242487                       # The number of squashed insts skipped by commit
system.switch_cpus1.commit.commitNonSpecStalls        29972                       # The number of times commit has been forced to stall to communicate backwards
system.switch_cpus1.commit.branchMispredicts      1927715                       # The number of times a branch was mispredicted
system.switch_cpus1.commit.committed_per_cycle::samples     68432601                       # Number of insts commited each cycle
system.switch_cpus1.commit.committed_per_cycle::mean     1.626761                       # Number of insts commited each cycle
system.switch_cpus1.commit.committed_per_cycle::stdev     2.141495                       # Number of insts commited each cycle
system.switch_cpus1.commit.committed_per_cycle::underflows            0      0.00%      0.00% # Number of insts commited each cycle
system.switch_cpus1.commit.committed_per_cycle::0     26533314     38.77%     38.77% # Number of insts commited each cycle
system.switch_cpus1.commit.committed_per_cycle::1     19000355     27.77%     66.54% # Number of insts commited each cycle
system.switch_cpus1.commit.committed_per_cycle::2      7734072     11.30%     77.84% # Number of insts commited each cycle
system.switch_cpus1.commit.committed_per_cycle::3      4341350      6.34%     84.18% # Number of insts commited each cycle
system.switch_cpus1.commit.committed_per_cycle::4      3546410      5.18%     89.37% # Number of insts commited each cycle
system.switch_cpus1.commit.committed_per_cycle::5      1434196      2.10%     91.46% # Number of insts commited each cycle
system.switch_cpus1.commit.committed_per_cycle::6      1705256      2.49%     93.95% # Number of insts commited each cycle
system.switch_cpus1.commit.committed_per_cycle::7       858430      1.25%     95.21% # Number of insts commited each cycle
system.switch_cpus1.commit.committed_per_cycle::8      3279218      4.79%    100.00% # Number of insts commited each cycle
system.switch_cpus1.commit.committed_per_cycle::overflows            0      0.00%    100.00% # Number of insts commited each cycle
system.switch_cpus1.commit.committed_per_cycle::min_value            0                       # Number of insts commited each cycle
system.switch_cpus1.commit.committed_per_cycle::max_value            8                       # Number of insts commited each cycle
system.switch_cpus1.commit.committed_per_cycle::total     68432601                       # Number of insts commited each cycle
system.switch_cpus1.commit.committedInsts     90648598                       # Number of instructions committed
system.switch_cpus1.commit.committedOps     111323459                       # Number of ops (including micro ops) committed
[...]
system.cpu2.icache.ReadReq_avg_miss_latency::total 51662.666667                       # average ReadReq miss latency
system.cpu2.icache.demand_avg_miss_latency::switch_cpus2.inst 51662.666667                       # average overall miss latency
system.cpu2.icache.demand_avg_miss_latency::total 51662.666667                       # average overall miss latency
system.cpu2.icache.overall_avg_miss_latency::switch_cpus2.inst 51662.666667                       # average overall miss latency
system.cpu2.icache.overall_avg_miss_latency::total 51662.666667                       # average overall miss latency
system.cpu2.icache.blocked_cycles::no_mshrs            0                       # number of cycles access was blocked
system.cpu2.icache.blocked_cycles::no_targets            0                       # number of cycles access was blocked
system.cpu2.icache.blocked::no_mshrs                0                       # number of cycles access was blocked
system.cpu2.icache.blocked::no_targets              0                       # number of cycles access was blocked
system.cpu2.icache.avg_blocked_cycles::no_mshrs          nan                       # average number of cycles each access was blocked
system.cpu2.icache.avg_blocked_cycles::no_targets          nan                       # average number of cycles each access was blocked
system.cpu2.icache.fast_writes                      0                       # number of fast writes performed
system.cpu2.icache.cache_copies                     0                       # number of cache copies performed
system.cpu2.icache.ReadReq_mshr_hits::switch_cpus2.inst            3                       # number of ReadReq MSHR hits
system.cpu2.icache.ReadReq_mshr_hits::total            3                       # number of ReadReq MSHR hits
system.cpu2.icache.demand_mshr_hits::switch_cpus2.inst            3                       # number of demand (read+write) MSHR hits
system.cpu2.icache.demand_mshr_hits::total            3                       # number of demand (read+write) MSHR hits
system.cpu2.icache.overall_mshr_hits::switch_cpus2.inst            3                       # number of overall MSHR hits
system.cpu2.icache.overall_mshr_hits::total            3                       # number of overall MSHR hits
system.cpu2.icache.ReadReq_mshr_misses::switch_cpus2.inst           21                       # number of ReadReq MSHR misses
system.cpu2.icache.ReadReq_mshr_misses::total           21                       # number of ReadReq MSHR misses
system.cpu2.icache.demand_mshr_misses::switch_cpus2.inst           21                       # number of demand (read+write) MSHR misses
system.cpu2.icache.demand_mshr_misses::total           21                       # number of demand (read+write) MSHR misses
system.cpu2.icache.overall_mshr_misses::switch_cpus2.inst           21                       # number of overall MSHR misses
system.cpu2.icache.overall_mshr_misses::total           21                       # number of overall MSHR misses
system.cpu2.icache.ReadReq_mshr_miss_latency::switch_cpus2.inst      1024058                       # number of ReadReq MSHR miss cycles
system.cpu2.icache.ReadReq_mshr_miss_latency::total      1024058                       # number of ReadReq MSHR miss cycles
system.cpu2.icache.demand_mshr_miss_latency::switch_cpus2.inst      1024058                       # number of demand (read+write) MSHR miss cycles
system.cpu2.icache.demand_mshr_miss_latency::total      1024058                       # number of demand (read+write) MSHR miss cycles
system.cpu2.icache.overall_mshr_miss_latency::switch_cpus2.inst      1024058                       # number of overall MSHR miss cycles
system.cpu2.icache.overall_mshr_miss_latency::total      1024058                       # number of overall MSHR miss cycles
system.cpu2.icache.ReadReq_mshr_miss_rate::switch_cpus2.inst     0.000001                       # mshr miss rate for ReadReq accesses
system.cpu2.icache.ReadReq_mshr_miss_rate::total     0.000001                       # mshr miss rate for ReadReq accesses
system.cpu2.icache.demand_mshr_miss_rate::switch_cpus2.inst     0.000001                       # mshr miss rate for demand accesses
system.cpu2.icache.demand_mshr_miss_rate::total     0.000001                       # mshr miss rate for demand accesses
system.cpu2.icache.overall_mshr_miss_rate::switch_cpus2.inst     0.000001                       # mshr miss rate for overall accesses
system.cpu2.icache.overall_mshr_miss_rate::total     0.000001                       # mshr miss rate for overall accesses
system.cpu2.icache.ReadReq_avg_mshr_miss_latency::switch_cpus2.inst 48764.666667                       # average ReadReq mshr miss latency
system.cpu2.icache.ReadReq_avg_mshr_miss_latency::total 48764.666667                       # average ReadReq mshr miss latency
system.cpu2.icache.demand_avg_mshr_miss_latency::switch_cpus2.inst 48764.666667                       # average overall mshr miss latency
system.cpu2.icache.demand_avg_mshr_miss_latency::total 48764.666667                       # average overall mshr miss latency
system.cpu2.icache.overall_avg_mshr_miss_latency::switch_cpus2.inst 48764.666667                       # average overall mshr miss latency
system.cpu2.icache.overall_avg_mshr_miss_latency::total 48764.666667                       # average overall mshr miss latency
system.cpu2.icache.no_allocate_misses               0                       # Number of misses that were no-allocate
system.cpu2.dcache.replacements                 30952                       # number of replacements
system.cpu2.dcache.tagsinuse                      256                       # Cycle average of tags in use
system.cpu2.dcache.total_refs               175897593                       # Total number of references to valid blocks.
system.cpu2.dcache.sampled_refs                 31208                       # Sample count of references to valid blocks.
system.cpu2.dcache.avg_refs               5636.298161                       # Average number of references to valid blocks.
system.cpu2.dcache.warmup_cycle                     0                       # Cycle when the warmup percentage was hit.
system.cpu2.dcache.occ_blocks::switch_cpus2.data   230.887411                       # Average occupied blocks per requestor
system.cpu2.dcache.occ_blocks::cpu2.data    25.112589                       # Average occupied blocks per requestor
system.cpu2.dcache.occ_percent::switch_cpus2.data     0.901904                       # Average percentage of cache occupancy
system.cpu2.dcache.occ_percent::cpu2.data     0.098096                       # Average percentage of cache occupancy
system.cpu2.dcache.occ_percent::total               1                       # Average percentage of cache occupancy
system.cpu2.dcache.ReadReq_hits::switch_cpus2.data      9680293                       # number of ReadReq hits
system.cpu2.dcache.ReadReq_hits::total        9680293                       # number of ReadReq hits
system.cpu2.dcache.WriteReq_hits::switch_cpus2.data      6599772                       # number of WriteReq hits
system.cpu2.dcache.WriteReq_hits::total       6599772                       # number of WriteReq hits
system.cpu2.dcache.LoadLockedReq_hits::switch_cpus2.data        15947                       # number of LoadLockedReq hits
system.cpu2.dcache.LoadLockedReq_hits::total        15947                       # number of LoadLockedReq hits
system.cpu2.dcache.StoreCondReq_hits::switch_cpus2.data        15912                       # number of StoreCondReq hits
system.cpu2.dcache.StoreCondReq_hits::total        15912                       # number of StoreCondReq hits
system.cpu2.dcache.demand_hits::switch_cpus2.data     16280065                       # number of demand (read+write) hits
system.cpu2.dcache.demand_hits::total        16280065                       # number of demand (read+write) hits
system.cpu2.dcache.overall_hits::switch_cpus2.data     16280065                       # number of overall hits
system.cpu2.dcache.overall_hits::total       16280065                       # number of overall hits
system.cpu2.dcache.ReadReq_misses::switch_cpus2.data        63190                       # number of ReadReq misses
system.cpu2.dcache.ReadReq_misses::total        63190                       # number of ReadReq misses
system.cpu2.dcache.WriteReq_misses::switch_cpus2.data          142                       # number of WriteReq misses
system.cpu2.dcache.WriteReq_misses::total          142                       # number of WriteReq misses
system.cpu2.dcache.demand_misses::switch_cpus2.data        63332                       # number of demand (read+write) misses
system.cpu2.dcache.demand_misses::total         63332                       # number of demand (read+write) misses
system.cpu2.dcache.overall_misses::switch_cpus2.data        63332                       # number of overall misses
system.cpu2.dcache.overall_misses::total        63332                       # number of overall misses
system.cpu2.dcache.ReadReq_miss_latency::switch_cpus2.data   1785704884                       # number of ReadReq miss cycles
system.cpu2.dcache.ReadReq_miss_latency::total   1785704884                       # number of ReadReq miss cycles
system.cpu2.dcache.WriteReq_miss_latency::switch_cpus2.data      9276916                       # number of WriteReq miss cycles
system.cpu2.dcache.WriteReq_miss_latency::total      9276916                       # number of WriteReq miss cycles
system.cpu2.dcache.demand_miss_latency::switch_cpus2.data   1794981800                       # number of demand (read+write) miss cycles
system.cpu2.dcache.demand_miss_latency::total   1794981800                       # number of demand (read+write) miss cycles
system.cpu2.dcache.overall_miss_latency::switch_cpus2.data   1794981800                       # number of overall miss cycles
system.cpu2.dcache.overall_miss_latency::total   1794981800                       # number of overall miss cycles
system.cpu2.dcache.ReadReq_accesses::switch_cpus2.data      9743483                       # number of ReadReq accesses(hits+misses)
system.cpu2.dcache.ReadReq_accesses::total      9743483                       # number of ReadReq accesses(hits+misses)
system.cpu2.dcache.WriteReq_accesses::switch_cpus2.data      6599914                       # number of WriteReq accesses(hits+misses)
system.cpu2.dcache.WriteReq_accesses::total      6599914                       # number of WriteReq accesses(hits+misses)
system.cpu2.dcache.LoadLockedReq_accesses::switch_cpus2.data        15947                       # number of LoadLockedReq accesses(hits+misses)
system.cpu2.dcache.LoadLockedReq_accesses::total        15947                       # number of LoadLockedReq accesses(hits+misses)
system.cpu2.dcache.StoreCondReq_accesses::switch_cpus2.data        15912                       # number of StoreCondReq accesses(hits+misses)
system.cpu2.dcache.StoreCondReq_accesses::total        15912                       # number of StoreCondReq accesses(hits+misses)
system.cpu2.dcache.demand_accesses::switch_cpus2.data     16343397                       # number of demand (read+write) accesses
system.cpu2.dcache.demand_accesses::total     16343397                       # number of demand (read+write) accesses
system.cpu2.dcache.overall_accesses::switch_cpus2.data     16343397                       # number of overall (read+write) accesses
system.cpu2.dcache.overall_accesses::total     16343397                       # number of overall (read+write) accesses
system.cpu2.dcache.ReadReq_miss_rate::switch_cpus2.data     0.006485                       # miss rate for ReadReq accesses
system.cpu2.dcache.ReadReq_miss_rate::total     0.006485                       # miss rate for ReadReq accesses
system.cpu2.dcache.WriteReq_miss_rate::switch_cpus2.data     0.000022                       # miss rate for WriteReq accesses
system.cpu2.dcache.WriteReq_miss_rate::total     0.000022                       # miss rate for WriteReq accesses
system.cpu2.dcache.demand_miss_rate::switch_cpus2.data     0.003875                       # miss rate for demand accesses
system.cpu2.dcache.demand_miss_rate::total     0.003875                       # miss rate for demand accesses
system.cpu2.dcache.overall_miss_rate::switch_cpus2.data     0.003875                       # miss rate for overall accesses
system.cpu2.dcache.overall_miss_rate::total     0.003875                       # miss rate for overall accesses
system.cpu2.dcache.ReadReq_avg_miss_latency::switch_cpus2.data 28259.295521                       # average ReadReq miss latency
system.cpu2.dcache.ReadReq_avg_miss_latency::total 28259.295521                       # average ReadReq miss latency
system.cpu2.dcache.WriteReq_avg_miss_latency::switch_cpus2.data 65330.394366                       # average WriteReq miss latency
system.cpu2.dcache.WriteReq_avg_miss_latency::total 65330.394366                       # average WriteReq miss latency
system.cpu2.dcache.demand_avg_miss_latency::switch_cpus2.data 28342.414577                       # average overall miss latency
system.cpu2.dcache.demand_avg_miss_latency::total 28342.414577                       # average overall miss latency
system.cpu2.dcache.overall_avg_miss_latency::switch_cpus2.data 28342.414577                       # average overall miss latency
system.cpu2.dcache.overall_avg_miss_latency::total 28342.414577                       # average overall miss latency
system.cpu2.dcache.blocked_cycles::no_mshrs            0                       # number of cycles access was blocked
system.cpu2.dcache.blocked_cycles::no_targets            0                       # number of cycles access was blocked
system.cpu2.dcache.blocked::no_mshrs                0                       # number of cycles access was blocked
system.cpu2.dcache.blocked::no_targets              0                       # number of cycles access was blocked
system.cpu2.dcache.avg_blocked_cycles::no_mshrs          nan                       # average number of cycles each access was blocked
system.cpu2.dcache.avg_blocked_cycles::no_targets          nan                       # average number of cycles each access was blocked
system.cpu2.dcache.fast_writes                      0                       # number of fast writes performed
system.cpu2.dcache.cache_copies                     0                       # number of cache copies performed
system.cpu2.dcache.writebacks::writebacks         7362                       # number of writebacks
system.cpu2.dcache.writebacks::total             7362                       # number of writebacks
system.cpu2.dcache.ReadReq_mshr_hits::switch_cpus2.data        32257                       # number of ReadReq MSHR hits
system.cpu2.dcache.ReadReq_mshr_hits::total        32257                       # number of ReadReq MSHR hits
system.cpu2.dcache.WriteReq_mshr_hits::switch_cpus2.data          123                       # number of WriteReq MSHR hits
system.cpu2.dcache.WriteReq_mshr_hits::total          123                       # number of WriteReq MSHR hits
system.cpu2.dcache.demand_mshr_hits::switch_cpus2.data        32380                       # number of demand (read+write) MSHR hits
system.cpu2.dcache.demand_mshr_hits::total        32380                       # number of demand (read+write) MSHR hits
system.cpu2.dcache.overall_mshr_hits::switch_cpus2.data        32380                       # number of overall MSHR hits
system.cpu2.dcache.overall_mshr_hits::total        32380                       # number of overall MSHR hits
system.cpu2.dcache.ReadReq_mshr_misses::switch_cpus2.data        30933                       # number of ReadReq MSHR misses
system.cpu2.dcache.ReadReq_mshr_misses::total        30933                       # number of ReadReq MSHR misses
system.cpu2.dcache.WriteReq_mshr_misses::switch_cpus2.data           19                       # number of WriteReq MSHR misses
system.cpu2.dcache.WriteReq_mshr_misses::total           19                       # number of WriteReq MSHR misses
system.cpu2.dcache.demand_mshr_misses::switch_cpus2.data        30952                       # number of demand (read+write) MSHR misses
system.cpu2.dcache.demand_mshr_misses::total        30952                       # number of demand (read+write) MSHR misses
system.cpu2.dcache.overall_mshr_misses::switch_cpus2.data        30952                       # number of overall MSHR misses
system.cpu2.dcache.overall_mshr_misses::total        30952                       # number of overall MSHR misses
system.cpu2.dcache.ReadReq_mshr_miss_latency::switch_cpus2.data    526625114                       # number of ReadReq MSHR miss cycles
system.cpu2.dcache.ReadReq_mshr_miss_latency::total    526625114                       # number of ReadReq MSHR miss cycles
system.cpu2.dcache.WriteReq_mshr_miss_latency::switch_cpus2.data      1112032                       # number of WriteReq MSHR miss cycles
system.cpu2.dcache.WriteReq_mshr_miss_latency::total      1112032                       # number of WriteReq MSHR miss cycles
system.cpu2.dcache.demand_mshr_miss_latency::switch_cpus2.data    527737146                       # number of demand (read+write) MSHR miss cycles
system.cpu2.dcache.demand_mshr_miss_latency::total    527737146                       # number of demand (read+write) MSHR miss cycles
system.cpu2.dcache.overall_mshr_miss_latency::switch_cpus2.data    527737146                       # number of overall MSHR miss cycles
system.cpu2.dcache.overall_mshr_miss_latency::total    527737146                       # number of overall MSHR miss cycles
system.cpu2.dcache.ReadReq_mshr_miss_rate::switch_cpus2.data     0.003175                       # mshr miss rate for ReadReq accesses
system.cpu2.dcache.ReadReq_mshr_miss_rate::total     0.003175                       # mshr miss rate for ReadReq accesses
system.cpu2.dcache.WriteReq_mshr_miss_rate::switch_cpus2.data     0.000003                       # mshr miss rate for WriteReq accesses
system.cpu2.dcache.WriteReq_mshr_miss_rate::total     0.000003                       # mshr miss rate for WriteReq accesses
system.cpu2.dcache.demand_mshr_miss_rate::switch_cpus2.data     0.001894                       # mshr miss rate for demand accesses
system.cpu2.dcache.demand_mshr_miss_rate::total     0.001894                       # mshr miss rate for demand accesses
system.cpu2.dcache.overall_mshr_miss_rate::switch_cpus2.data     0.001894                       # mshr miss rate for overall accesses
system.cpu2.dcache.overall_mshr_miss_rate::total     0.001894                       # mshr miss rate for overall accesses
system.cpu2.dcache.ReadReq_avg_mshr_miss_latency::switch_cpus2.data 17024.702227                       # average ReadReq mshr miss latency
system.cpu2.dcache.ReadReq_avg_mshr_miss_latency::total 17024.702227                       # average ReadReq mshr miss latency
system.cpu2.dcache.WriteReq_avg_mshr_miss_latency::switch_cpus2.data        58528                       # average WriteReq mshr miss latency
system.cpu2.dcache.WriteReq_avg_mshr_miss_latency::total        58528                       # average WriteReq mshr miss latency
system.cpu2.dcache.demand_avg_mshr_miss_latency::switch_cpus2.data 17050.179181                       # average overall mshr miss latency
system.cpu2.dcache.demand_avg_mshr_miss_latency::total 17050.179181                       # average overall mshr miss latency
system.cpu2.dcache.overall_avg_mshr_miss_latency::switch_cpus2.data 17050.179181                       # average overall mshr miss latency
system.cpu2.dcache.overall_avg_mshr_miss_latency::total 17050.179181                       # average overall mshr miss latency
system.cpu2.dcache.no_allocate_misses               0                       # Number of misses that were no-allocate

---------- End Simulation Statistics   ----------
