
---------- Begin Simulation Statistics ----------
sim_seconds                                  0.117077                       # Number of seconds simulated
sim_ticks                                117076744026                       # Number of ticks simulated
final_tick                               686908037160                       # Number of ticks from beginning of simulation (restored from checkpoints and never reset)
sim_freq                                 1000000000000                       # Frequency of simulated ticks
host_inst_rate                                 203233                       # Simulator instruction rate (inst/s)
host_op_rate                                   261340                       # Simulator op (including micro ops) rate (op/s)
host_tick_rate                                6810182                       # Simulator tick rate (ticks/s)
host_mem_usage                               16907092                       # Number of bytes of host memory used
host_seconds                                 17191.43                       # Real time elapsed on the host
sim_insts                                  3493866096                       # Number of instructions simulated
sim_ops                                    4492814778                       # Number of ops (including micro ops) simulated
system.physmem.bytes_read::switch_cpus0.inst         1792                       # Number of bytes read from this memory
system.physmem.bytes_read::switch_cpus0.data      1605376                       # Number of bytes read from this memory
system.physmem.bytes_read::switch_cpus1.inst         1664                       # Number of bytes read from this memory
system.physmem.bytes_read::switch_cpus1.data      1281792                       # Number of bytes read from this memory
system.physmem.bytes_read::switch_cpus2.inst         1664                       # Number of bytes read from this memory
system.physmem.bytes_read::switch_cpus2.data      2411776                       # Number of bytes read from this memory
system.physmem.bytes_read::total              5304064                       # Number of bytes read from this memory
system.physmem.bytes_inst_read::switch_cpus0.inst         1792                       # Number of instructions bytes read from this memory
system.physmem.bytes_inst_read::switch_cpus1.inst         1664                       # Number of instructions bytes read from this memory
system.physmem.bytes_inst_read::switch_cpus2.inst         1664                       # Number of instructions bytes read from this memory
system.physmem.bytes_inst_read::total            5120                       # Number of instructions bytes read from this memory
system.physmem.bytes_written::writebacks      1567104                       # Number of bytes written to this memory
system.physmem.bytes_written::total           1567104                       # Number of bytes written to this memory
system.physmem.num_reads::switch_cpus0.inst           14                       # Number of read requests responded to by this memory
system.physmem.num_reads::switch_cpus0.data        12542                       # Number of read requests responded to by this memory
system.physmem.num_reads::switch_cpus1.inst           13                       # Number of read requests responded to by this memory
system.physmem.num_reads::switch_cpus1.data        10014                       # Number of read requests responded to by this memory
system.physmem.num_reads::switch_cpus2.inst           13                       # Number of read requests responded to by this memory
system.physmem.num_reads::switch_cpus2.data        18842                       # Number of read requests responded to by this memory
system.physmem.num_reads::total                 41438                       # Number of read requests responded to by this memory
system.physmem.num_writes::writebacks           12243                       # Number of write requests responded to by this memory
system.physmem.num_writes::functional               0                       # Number of write requests responded to by this memory
system.physmem.num_writes::interrupt                0                       # Number of write requests responded to by this memory
system.physmem.num_writes::switch_cpus0.dtb.walker            0                       # Number of write requests responded to by this memory
system.physmem.num_writes::switch_cpus0.itb.walker            0                       # Number of write requests responded to by this memory
system.physmem.num_writes::switch_cpus0.inst            0                       # Number of write requests responded to by this memory
system.physmem.num_writes::switch_cpus0.data            0                       # Number of write requests responded to by this memory
system.physmem.num_writes::switch_cpus1.dtb.walker            0                       # Number of write requests responded to by this memory
system.physmem.num_writes::switch_cpus1.itb.walker            0                       # Number of write requests responded to by this memory
system.physmem.num_writes::switch_cpus1.inst            0                       # Number of write requests responded to by this memory
system.physmem.num_writes::switch_cpus1.data            0                       # Number of write requests responded to by this memory
system.physmem.num_writes::switch_cpus2.dtb.walker            0                       # Number of write requests responded to by this memory
system.physmem.num_writes::switch_cpus2.itb.walker            0                       # Number of write requests responded to by this memory
system.physmem.num_writes::switch_cpus2.inst            0                       # Number of write requests responded to by this memory
system.physmem.num_writes::switch_cpus2.data            0                       # Number of write requests responded to by this memory
system.physmem.num_writes::cpu0.dtb.walker            0                       # Number of write requests responded to by this memory
system.physmem.num_writes::cpu0.itb.walker            0                       # Number of write requests responded to by this memory
system.physmem.num_writes::cpu0.inst                0                       # Number of write requests responded to by this memory
system.physmem.num_writes::cpu0.data                0                       # Number of write requests responded to by this memory
system.physmem.num_writes::cpu1.dtb.walker            0                       # Number of write requests responded to by this memory
system.physmem.num_writes::cpu1.itb.walker            0                       # Number of write requests responded to by this memory
system.physmem.num_writes::cpu1.inst                0                       # Number of write requests responded to by this memory
system.physmem.num_writes::cpu1.data                0                       # Number of write requests responded to by this memory
system.physmem.num_writes::cpu2.dtb.walker            0                       # Number of write requests responded to by this memory
system.physmem.num_writes::cpu2.itb.walker            0                       # Number of write requests responded to by this memory
system.physmem.num_writes::cpu2.inst                0                       # Number of write requests responded to by this memory
system.physmem.num_writes::cpu2.data                0                       # Number of write requests responded to by this memory
system.physmem.num_writes::total                12243                       # Number of write requests responded to by this memory
system.physmem.bw_read::switch_cpus0.inst        15306                       # Total read bandwidth from this memory (bytes/s)
system.physmem.bw_read::switch_cpus0.data     13712168                       # Total read bandwidth from this memory (bytes/s)
system.physmem.bw_read::switch_cpus1.inst        14213                       # Total read bandwidth from this memory (bytes/s)
system.physmem.bw_read::switch_cpus1.data     10948306                       # Total read bandwidth from this memory (bytes/s)
system.physmem.bw_read::switch_cpus2.inst        14213                       # Total read bandwidth from this memory (bytes/s)
system.physmem.bw_read::switch_cpus2.data     20599958                       # Total read bandwidth from this memory (bytes/s)
system.physmem.bw_read::total                45304164                       # Total read bandwidth from this memory (bytes/s)
system.physmem.bw_inst_read::switch_cpus0.inst        15306                       # Instruction read bandwidth from this memory (bytes/s)
system.physmem.bw_inst_read::switch_cpus1.inst        14213                       # Instruction read bandwidth from this memory (bytes/s)
system.physmem.bw_inst_read::switch_cpus2.inst        14213                       # Instruction read bandwidth from this memory (bytes/s)
system.physmem.bw_inst_read::total              43732                       # Instruction read bandwidth from this memory (bytes/s)
system.physmem.bw_write::writebacks          13385271                       # Write bandwidth from this memory (bytes/s)
system.physmem.bw_write::total               13385271                       # Write bandwidth from this memory (bytes/s)
system.physmem.bw_total::writebacks          13385271                       # Total bandwidth to/from this memory (bytes/s)
system.physmem.bw_total::switch_cpus0.inst        15306                       # Total bandwidth to/from this memory (bytes/s)
system.physmem.bw_total::switch_cpus0.data     13712168                       # Total bandwidth to/from this memory (bytes/s)
system.physmem.bw_total::switch_cpus1.inst        14213                       # Total bandwidth to/from this memory (bytes/s)
system.physmem.bw_total::switch_cpus1.data     10948306                       # Total bandwidth to/from this memory (bytes/s)
system.physmem.bw_total::switch_cpus2.inst        14213                       # Total bandwidth to/from this memory (bytes/s)
system.physmem.bw_total::switch_cpus2.data     20599958                       # Total bandwidth to/from this memory (bytes/s)
system.physmem.bw_total::total               58689435                       # Total bandwidth to/from this memory (bytes/s)
system.switch_cpus0.dtb.inst_hits                   0                       # ITB inst hits
system.switch_cpus0.dtb.inst_misses                 0                       # ITB inst misses
system.switch_cpus0.dtb.read_hits                   0                       # DTB read hits
system.switch_cpus0.dtb.read_misses                 0                       # DTB read misses
system.switch_cpus0.dtb.write_hits                  0                       # DTB write hits
system.switch_cpus0.dtb.write_misses                0                       # DTB write misses
system.switch_cpus0.dtb.flush_tlb                   0                       # Number of times complete TLB was flushed
system.switch_cpus0.dtb.flush_tlb_mva               0                       # Number of times TLB was flushed by MVA
system.switch_cpus0.dtb.flush_tlb_mva_asid            0                       # Number of times TLB was flushed by MVA & ASID
system.switch_cpus0.dtb.flush_tlb_asid              0                       # Number of times TLB was flushed by ASID
system.switch_cpus0.dtb.flush_entries               0                       # Number of entries that have been flushed from TLB
system.switch_cpus0.dtb.align_faults                0                       # Number of TLB faults due to alignment restrictions
system.switch_cpus0.dtb.prefetch_faults             0                       # Number of TLB faults due to prefetch
system.switch_cpus0.dtb.domain_faults               0                       # Number of TLB faults due to domain restrictions
system.switch_cpus0.dtb.perms_faults                0                       # Number of TLB faults due to permissions restrictions
system.switch_cpus0.dtb.read_accesses               0                       # DTB read accesses
system.switch_cpus0.dtb.write_accesses              0                       # DTB write accesses
system.switch_cpus0.dtb.inst_accesses               0                       # ITB inst accesses
system.switch_cpus0.dtb.hits                        0                       # DTB hits
system.switch_cpus0.dtb.misses                      0                       # DTB misses
system.switch_cpus0.dtb.accesses                    0                       # DTB accesses
system.switch_cpus0.itb.inst_hits                   0                       # ITB inst hits
system.switch_cpus0.itb.inst_misses                 0                       # ITB inst misses
system.switch_cpus0.itb.read_hits                   0                       # DTB read hits
system.switch_cpus0.itb.read_misses                 0                       # DTB read misses
system.switch_cpus0.itb.write_hits                  0                       # DTB write hits
system.switch_cpus0.itb.write_misses                0                       # DTB write misses
system.switch_cpus0.itb.flush_tlb                   0                       # Number of times complete TLB was flushed
system.switch_cpus0.itb.flush_tlb_mva               0                       # Number of times TLB was flushed by MVA
system.switch_cpus0.itb.flush_tlb_mva_asid            0                       # Number of times TLB was flushed by MVA & ASID
system.switch_cpus0.itb.flush_tlb_asid              0                       # Number of times TLB was flushed by ASID
system.switch_cpus0.itb.flush_entries               0                       # Number of entries that have been flushed from TLB
system.switch_cpus0.itb.align_faults                0                       # Number of TLB faults due to alignment restrictions
system.switch_cpus0.itb.prefetch_faults             0                       # Number of TLB faults due to prefetch
system.switch_cpus0.itb.domain_faults               0                       # Number of TLB faults due to domain restrictions
system.switch_cpus0.itb.perms_faults                0                       # Number of TLB faults due to permissions restrictions
system.switch_cpus0.itb.read_accesses               0                       # DTB read accesses
system.switch_cpus0.itb.write_accesses              0                       # DTB write accesses
system.switch_cpus0.itb.inst_accesses               0                       # ITB inst accesses
system.switch_cpus0.itb.hits                        0                       # DTB hits
system.switch_cpus0.itb.misses                      0                       # DTB misses
system.switch_cpus0.itb.accesses                    0                       # DTB accesses
system.cpu0.workload.num_syscalls                   0                       # Number of system calls
system.switch_cpus0.numCycles               280759579                       # number of cpu cycles simulated
system.switch_cpus0.numWorkItemsStarted             0                       # number of work items this cpu started
system.switch_cpus0.numWorkItemsCompleted            0                       # number of work items this cpu completed
system.switch_cpus0.BPredUnit.lookups        21109058                       # Number of BP lookups
system.switch_cpus0.BPredUnit.condPredicted     18748955                       # Number of conditional branches predicted
system.switch_cpus0.BPredUnit.condIncorrect      1830712                       # Number of conditional branches incorrect
system.switch_cpus0.BPredUnit.BTBLookups     11143748                       # Number of BTB lookups
system.switch_cpus0.BPredUnit.BTBHits        10815988                       # Number of BTB hits
system.switch_cpus0.BPredUnit.BTBCorrect            0                       # Number of correct BTB predictions (this stat may not work properly.
system.switch_cpus0.BPredUnit.usedRAS         1339139                       # Number of times the RAS was used to get a target.
system.switch_cpus0.BPredUnit.RASInCorrect        52882                       # Number of incorrect RAS predictions.
system.switch_cpus0.fetch.icacheStallCycles    227873500                       # Number of cycles fetch is stalled on an Icache miss
system.switch_cpus0.fetch.Insts             119513177                       # Number of instructions fetch has processed
system.switch_cpus0.fetch.Branches           21109058                       # Number of branches that fetch encountered
system.switch_cpus0.fetch.predictedBranches     12155127                       # Number of branches that fetch has predicted taken
system.switch_cpus0.fetch.Cycles             24162548                       # Number of cycles fetch has run and was not squashing or blocked
system.switch_cpus0.fetch.SquashCycles        5586281                       # Number of cycles fetch has spent squashing
system.switch_cpus0.fetch.BlockedCycles       2193876                       # Number of cycles fetch has spent blocked
system.switch_cpus0.fetch.PendingTrapStallCycles           23                       # Number of stall cycles due to pending traps
system.switch_cpus0.fetch.CacheLines         13946833                       # Number of cache lines fetched
system.switch_cpus0.fetch.IcacheSquashes      1824365                       # Number of outstanding Icache misses that were squashed
system.switch_cpus0.fetch.rateDist::samples    257976047                       # Number of instructions fetched each cycle (Total)
system.switch_cpus0.fetch.rateDist::mean     0.521782                       # Number of instructions fetched each cycle (Total)
system.switch_cpus0.fetch.rateDist::stdev     1.771171                       # Number of instructions fetched each cycle (Total)
system.switch_cpus0.fetch.rateDist::underflows            0      0.00%      0.00% # Number of instructions fetched each cycle (Total)
system.switch_cpus0.fetch.rateDist::0       233813499     90.63%     90.63% # Number of instructions fetched each cycle (Total)
system.switch_cpus0.fetch.rateDist::1         1095286      0.42%     91.06% # Number of instructions fetched each cycle (Total)
system.switch_cpus0.fetch.rateDist::2         2039427      0.79%     91.85% # Number of instructions fetched each cycle (Total)
system.switch_cpus0.fetch.rateDist::3         1766300      0.68%     92.53% # Number of instructions fetched each cycle (Total)
system.switch_cpus0.fetch.rateDist::4         3574393      1.39%     93.92% # Number of instructions fetched each cycle (Total)
system.switch_cpus0.fetch.rateDist::5         4336832      1.68%     95.60% # Number of instructions fetched each cycle (Total)
system.switch_cpus0.fetch.rateDist::6         1042957      0.40%     96.00% # Number of instructions fetched each cycle (Total)
system.switch_cpus0.fetch.rateDist::7          563972      0.22%     96.22% # Number of instructions fetched each cycle (Total)
system.switch_cpus0.fetch.rateDist::8         9743381      3.78%    100.00% # Number of instructions fetched each cycle (Total)
system.switch_cpus0.fetch.rateDist::overflows            0      0.00%    100.00% # Number of instructions fetched each cycle (Total)
system.switch_cpus0.fetch.rateDist::min_value            0                       # Number of instructions fetched each cycle (Total)
system.switch_cpus0.fetch.rateDist::max_value            8                       # Number of instructions fetched each cycle (Total)
system.switch_cpus0.fetch.rateDist::total    257976047                       # Number of instructions fetched each cycle (Total)
system.switch_cpus0.fetch.branchRate         0.075186                       # Number of branch fetches per cycle
system.switch_cpus0.fetch.rate               0.425678                       # Number of inst fetches per cycle
system.switch_cpus0.decode.IdleCycles       226233532                       # Number of cycles decode is idle
system.switch_cpus0.decode.BlockedCycles      3851196                       # Number of cycles decode is blocked
system.switch_cpus0.decode.RunCycles         24124934                       # Number of cycles decode is running
system.switch_cpus0.decode.UnblockCycles        25116                       # Number of cycles decode is unblocking
system.switch_cpus0.decode.SquashCycles       3741268                       # Number of cycles decode is squashing
system.switch_cpus0.decode.BranchResolved      2058572                       # Number of times decode resolved a branch
system.switch_cpus0.decode.BranchMispred         4832                       # Number of times decode detected a branch misprediction
system.switch_cpus0.decode.DecodedInsts     134529881                       # Number of instructions handled by decode
system.switch_cpus0.decode.SquashedInsts         1327                       # Number of squashed instructions handled by decode
system.switch_cpus0.rename.SquashCycles       3741268                       # Number of cycles rename is squashing
system.switch_cpus0.rename.IdleCycles       226503590                       # Number of cycles rename is idle
system.switch_cpus0.rename.BlockCycles        1782732                       # Number of cycles rename is blocking
system.switch_cpus0.rename.serializeStallCycles      1261938                       # count of cycles rename stalled for serializing inst
system.switch_cpus0.rename.RunCycles         23869204                       # Number of cycles rename is running
system.switch_cpus0.rename.UnblockCycles       817313                       # Number of cycles rename is unblocking
system.switch_cpus0.rename.RenamedInsts     134420056                       # Number of instructions processed by rename
system.switch_cpus0.rename.ROBFullEvents            7                       # Number of times rename has blocked due to ROB full
system.switch_cpus0.rename.IQFullEvents         87821                       # Number of times rename has blocked due to IQ full
system.switch_cpus0.rename.LSQFullEvents       499554                       # Number of times rename has blocked due to LSQ full
system.switch_cpus0.rename.RenamedOperands    177450947                       # Number of destination operands rename has renamed
system.switch_cpus0.rename.RenameLookups    607737559                       # Number of register rename lookups that rename has made
system.switch_cpus0.rename.int_rename_lookups    607737559                       # Number of integer rename lookups
system.switch_cpus0.rename.CommittedMaps    146711191                       # Number of HB maps that are committed
system.switch_cpus0.rename.UndoneMaps        30739748                       # Number of HB maps that are undone due to squashing
system.switch_cpus0.rename.serializingInsts        18451                       # count of serializing insts renamed
system.switch_cpus0.rename.tempSerializingInsts         9231                       # count of temporary serializing insts renamed
system.switch_cpus0.rename.skidInsts          2559008                       # count of insts added to the skid buffer
system.switch_cpus0.memDep0.insertedLoads     23425455                       # Number of loads inserted to the mem dependence unit.
system.switch_cpus0.memDep0.insertedStores      4136917                       # Number of stores inserted to the mem dependence unit.
system.switch_cpus0.memDep0.conflictingLoads        73677                       # Number of conflicting loads.
system.switch_cpus0.memDep0.conflictingStores       924696                       # Number of conflicting stores.
system.switch_cpus0.iq.iqInstsAdded         133918087                       # Number of instructions added to the IQ (excludes non-spec)
system.switch_cpus0.iq.iqNonSpecInstsAdded        18451                       # Number of non-speculative instructions added to the IQ
system.switch_cpus0.iq.iqInstsIssued        127190624                       # Number of instructions issued
system.switch_cpus0.iq.iqSquashedInstsIssued        79239                       # Number of squashed instructions issued
system.switch_cpus0.iq.iqSquashedInstsExamined     20209494                       # Number of squashed instructions iterated over during squash; mainly for profiling
system.switch_cpus0.iq.iqSquashedOperandsExamined     42478177                       # Number of squashed operands that are examined and possibly removed from graph
system.switch_cpus0.iq.iqSquashedNonSpecRemoved           11                       # Number of squashed non-spec instructions that were removed
system.switch_cpus0.iq.issued_per_cycle::samples    257976047                       # Number of insts issued each cycle
system.switch_cpus0.iq.issued_per_cycle::mean     0.493033                       # Number of insts issued each cycle
system.switch_cpus0.iq.issued_per_cycle::stdev     1.176077                       # Number of insts issued each cycle
system.switch_cpus0.iq.issued_per_cycle::underflows            0      0.00%      0.00% # Number of insts issued each cycle
system.switch_cpus0.iq.issued_per_cycle::0    203543466     78.90%     78.90% # Number of insts issued each cycle
system.switch_cpus0.iq.issued_per_cycle::1     22824830      8.85%     87.75% # Number of insts issued each cycle
system.switch_cpus0.iq.issued_per_cycle::2     11698737      4.53%     92.28% # Number of insts issued each cycle
system.switch_cpus0.iq.issued_per_cycle::3      6738195      2.61%     94.89% # Number of insts issued each cycle
system.switch_cpus0.iq.issued_per_cycle::4      7500199      2.91%     97.80% # Number of insts issued each cycle
system.switch_cpus0.iq.issued_per_cycle::5      3754393      1.46%     99.26% # Number of insts issued each cycle
system.switch_cpus0.iq.issued_per_cycle::6      1499080      0.58%     99.84% # Number of insts issued each cycle
system.switch_cpus0.iq.issued_per_cycle::7       350682      0.14%     99.97% # Number of insts issued each cycle
system.switch_cpus0.iq.issued_per_cycle::8        66465      0.03%    100.00% # Number of insts issued each cycle
system.switch_cpus0.iq.issued_per_cycle::overflows            0      0.00%    100.00% # Number of insts issued each cycle
system.switch_cpus0.iq.issued_per_cycle::min_value            0                       # Number of insts issued each cycle
system.switch_cpus0.iq.issued_per_cycle::max_value            8                       # Number of insts issued each cycle
system.switch_cpus0.iq.issued_per_cycle::total    257976047                       # Number of insts issued each cycle
system.switch_cpus0.iq.fu_full::No_OpClass            0      0.00%      0.00% # attempts to use FU when none available
system.switch_cpus0.iq.fu_full::IntAlu         233805     47.94%     47.94% # attempts to use FU when none available
system.switch_cpus0.iq.fu_full::IntMult             0      0.00%     47.94% # attempts to use FU when none available
system.switch_cpus0.iq.fu_full::IntDiv              0      0.00%     47.94% # attempts to use FU when none available
system.switch_cpus0.iq.fu_full::FloatAdd            0      0.00%     47.94% # attempts to use FU when none available
system.switch_cpus0.iq.fu_full::FloatCmp            0      0.00%     47.94% # attempts to use FU when none available
system.switch_cpus0.iq.fu_full::FloatCvt            0      0.00%     47.94% # attempts to use FU when none available
system.switch_cpus0.iq.fu_full::FloatMult            0      0.00%     47.94% # attempts to use FU when none available
system.switch_cpus0.iq.fu_full::FloatDiv            0      0.00%     47.94% # attempts to use FU when none available
system.switch_cpus0.iq.fu_full::FloatSqrt            0      0.00%     47.94% # attempts to use FU when none available
system.switch_cpus0.iq.fu_full::SimdAdd             0      0.00%     47.94% # attempts to use FU when none available
system.switch_cpus0.iq.fu_full::SimdAddAcc            0      0.00%     47.94% # attempts to use FU when none available
system.switch_cpus0.iq.fu_full::SimdAlu             0      0.00%     47.94% # attempts to use FU when none available
system.switch_cpus0.iq.fu_full::SimdCmp             0      0.00%     47.94% # attempts to use FU when none available
system.switch_cpus0.iq.fu_full::SimdCvt             0      0.00%     47.94% # attempts to use FU when none available
system.switch_cpus0.iq.fu_full::SimdMisc            0      0.00%     47.94% # attempts to use FU when none available
system.switch_cpus0.iq.fu_full::SimdMult            0      0.00%     47.94% # attempts to use FU when none available
system.switch_cpus0.iq.fu_full::SimdMultAcc            0      0.00%     47.94% # attempts to use FU when none available
system.switch_cpus0.iq.fu_full::SimdShift            0      0.00%     47.94% # attempts to use FU when none available
system.switch_cpus0.iq.fu_full::SimdShiftAcc            0      0.00%     47.94% # attempts to use FU when none available
system.switch_cpus0.iq.fu_full::SimdSqrt            0      0.00%     47.94% # attempts to use FU when none available
system.switch_cpus0.iq.fu_full::SimdFloatAdd            0      0.00%     47.94% # attempts to use FU when none available
system.switch_cpus0.iq.fu_full::SimdFloatAlu            0      0.00%     47.94% # attempts to use FU when none available
system.switch_cpus0.iq.fu_full::SimdFloatCmp            0      0.00%     47.94% # attempts to use FU when none available
system.switch_cpus0.iq.fu_full::SimdFloatCvt            0      0.00%     47.94% # attempts to use FU when none available
system.switch_cpus0.iq.fu_full::SimdFloatDiv            0      0.00%     47.94% # attempts to use FU when none available
system.switch_cpus0.iq.fu_full::SimdFloatMisc            0      0.00%     47.94% # attempts to use FU when none available
system.switch_cpus0.iq.fu_full::SimdFloatMult            0      0.00%     47.94% # attempts to use FU when none available
system.switch_cpus0.iq.fu_full::SimdFloatMultAcc            0      0.00%     47.94% # attempts to use FU when none available
system.switch_cpus0.iq.fu_full::SimdFloatSqrt            0      0.00%     47.94% # attempts to use FU when none available
system.switch_cpus0.iq.fu_full::MemRead        179036     36.71%     84.64% # attempts to use FU when none available
system.switch_cpus0.iq.fu_full::MemWrite        74900     15.36%    100.00% # attempts to use FU when none available
system.switch_cpus0.iq.fu_full::IprAccess            0      0.00%    100.00% # attempts to use FU when none available
system.switch_cpus0.iq.fu_full::InstPrefetch            0      0.00%    100.00% # attempts to use FU when none available
system.switch_cpus0.iq.FU_type_0::No_OpClass            0      0.00%      0.00% # Type of FU issued
system.switch_cpus0.iq.FU_type_0::IntAlu     99832705     78.49%     78.49% # Type of FU issued
system.switch_cpus0.iq.FU_type_0::IntMult      1005835      0.79%     79.28% # Type of FU issued
system.switch_cpus0.iq.FU_type_0::IntDiv            0      0.00%     79.28% # Type of FU issued
system.switch_cpus0.iq.FU_type_0::FloatAdd            0      0.00%     79.28% # Type of FU issued
system.switch_cpus0.iq.FU_type_0::FloatCmp            0      0.00%     79.28% # Type of FU issued
system.switch_cpus0.iq.FU_type_0::FloatCvt            0      0.00%     79.28% # Type of FU issued
system.switch_cpus0.iq.FU_type_0::FloatMult            0      0.00%     79.28% # Type of FU issued
system.switch_cpus0.iq.FU_type_0::FloatDiv            0      0.00%     79.28% # Type of FU issued
system.switch_cpus0.iq.FU_type_0::FloatSqrt            0      0.00%     79.28% # Type of FU issued
system.switch_cpus0.iq.FU_type_0::SimdAdd            0      0.00%     79.28% # Type of FU issued
system.switch_cpus0.iq.FU_type_0::SimdAddAcc            0      0.00%     79.28% # Type of FU issued
system.switch_cpus0.iq.FU_type_0::SimdAlu            0      0.00%     79.28% # Type of FU issued
system.switch_cpus0.iq.FU_type_0::SimdCmp            0      0.00%     79.28% # Type of FU issued
system.switch_cpus0.iq.FU_type_0::SimdCvt            0      0.00%     79.28% # Type of FU issued
system.switch_cpus0.iq.FU_type_0::SimdMisc            0      0.00%     79.28% # Type of FU issued
system.switch_cpus0.iq.FU_type_0::SimdMult            0      0.00%     79.28% # Type of FU issued
system.switch_cpus0.iq.FU_type_0::SimdMultAcc            0      0.00%     79.28% # Type of FU issued
system.switch_cpus0.iq.FU_type_0::SimdShift            0      0.00%     79.28% # Type of FU issued
system.switch_cpus0.iq.FU_type_0::SimdShiftAcc            0      0.00%     79.28% # Type of FU issued
system.switch_cpus0.iq.FU_type_0::SimdSqrt            0      0.00%     79.28% # Type of FU issued
system.switch_cpus0.iq.FU_type_0::SimdFloatAdd            0      0.00%     79.28% # Type of FU issued
system.switch_cpus0.iq.FU_type_0::SimdFloatAlu            0      0.00%     79.28% # Type of FU issued
system.switch_cpus0.iq.FU_type_0::SimdFloatCmp            0      0.00%     79.28% # Type of FU issued
system.switch_cpus0.iq.FU_type_0::SimdFloatCvt            0      0.00%     79.28% # Type of FU issued
system.switch_cpus0.iq.FU_type_0::SimdFloatDiv            0      0.00%     79.28% # Type of FU issued
system.switch_cpus0.iq.FU_type_0::SimdFloatMisc         9220      0.01%     79.29% # Type of FU issued
system.switch_cpus0.iq.FU_type_0::SimdFloatMult            0      0.00%     79.29% # Type of FU issued
system.switch_cpus0.iq.FU_type_0::SimdFloatMultAcc            0      0.00%     79.29% # Type of FU issued
system.switch_cpus0.iq.FU_type_0::SimdFloatSqrt            0      0.00%     79.29% # Type of FU issued
system.switch_cpus0.iq.FU_type_0::MemRead     22226746     17.48%     96.76% # Type of FU issued
system.switch_cpus0.iq.FU_type_0::MemWrite      4116118      3.24%    100.00% # Type of FU issued
system.switch_cpus0.iq.FU_type_0::IprAccess            0      0.00%    100.00% # Type of FU issued
system.switch_cpus0.iq.FU_type_0::InstPrefetch            0      0.00%    100.00% # Type of FU issued
system.switch_cpus0.iq.FU_type_0::total     127190624                       # Type of FU issued
system.switch_cpus0.iq.rate                  0.453023                       # Inst issue rate
system.switch_cpus0.iq.fu_busy_cnt             487741                       # FU busy when requested
system.switch_cpus0.iq.fu_busy_rate          0.003835                       # FU busy rate (busy events/executed inst)
system.switch_cpus0.iq.int_inst_queue_reads    512924275                       # Number of integer instruction queue reads
system.switch_cpus0.iq.int_inst_queue_writes    154146333                       # Number of integer instruction queue writes
system.switch_cpus0.iq.int_inst_queue_wakeup_accesses    124236870                       # Number of integer instruction queue wakeup accesses
system.switch_cpus0.iq.fp_inst_queue_reads            0                       # Number of floating instruction queue reads
system.switch_cpus0.iq.fp_inst_queue_writes            0                       # Number of floating instruction queue writes
system.switch_cpus0.iq.fp_inst_queue_wakeup_accesses            0                       # Number of floating instruction queue wakeup accesses
system.switch_cpus0.iq.int_alu_accesses     127678365                       # Number of integer alu accesses
system.switch_cpus0.iq.fp_alu_accesses              0                       # Number of floating point alu accesses
system.switch_cpus0.iew.lsq.thread0.forwLoads       224803                       # Number of loads that had data forwarded from stores
system.switch_cpus0.iew.lsq.thread0.invAddrLoads            0                       # Number of loads ignored due to an invalid address
system.switch_cpus0.iew.lsq.thread0.squashedLoads      3899646                       # Number of loads squashed
system.switch_cpus0.iew.lsq.thread0.ignoredResponses          283                       # Number of memory responses ignored because the instruction is squashed
system.switch_cpus0.iew.lsq.thread0.memOrderViolation          301                       # Number of memory ordering violations
system.switch_cpus0.iew.lsq.thread0.squashedStores       108009                       # Number of stores squashed
system.switch_cpus0.iew.lsq.thread0.invAddrSwpfs            0                       # Number of software prefetches ignored due to an invalid address
system.switch_cpus0.iew.lsq.thread0.blockedLoads            0                       # Number of blocked loads due to partial load-store forwarding
system.switch_cpus0.iew.lsq.thread0.rescheduledLoads            0                       # Number of loads that were rescheduled
system.switch_cpus0.iew.lsq.thread0.cacheBlocked            0                       # Number of times an access to memory failed due to the cache being blocked
system.switch_cpus0.iew.iewIdleCycles               0                       # Number of cycles IEW is idle
system.switch_cpus0.iew.iewSquashCycles       3741268                       # Number of cycles IEW is squashing
system.switch_cpus0.iew.iewBlockCycles        1210914                       # Number of cycles IEW is blocking
system.switch_cpus0.iew.iewUnblockCycles        64288                       # Number of cycles IEW is unblocking
system.switch_cpus0.iew.iewDispatchedInsts    133936539                       # Number of instructions dispatched to IQ
system.switch_cpus0.iew.iewDispSquashedInsts         5999                       # Number of squashed instructions skipped by dispatch
system.switch_cpus0.iew.iewDispLoadInsts     23425455                       # Number of dispatched load instructions
system.switch_cpus0.iew.iewDispStoreInsts      4136917                       # Number of dispatched store instructions
system.switch_cpus0.iew.iewDispNonSpecInsts         9231                       # Number of dispatched non-speculative instructions
system.switch_cpus0.iew.iewIQFullEvents         37394                       # Number of times the IQ has become full, causing a stall
system.switch_cpus0.iew.iewLSQFullEvents          524                       # Number of times the LSQ has become full, causing a stall
system.switch_cpus0.iew.memOrderViolationEvents          301                       # Number of memory order violations
system.switch_cpus0.iew.predictedTakenIncorrect       824979                       # Number of branches that were predicted taken incorrectly
system.switch_cpus0.iew.predictedNotTakenIncorrect      1101761                       # Number of branches that were predicted not taken incorrectly
system.switch_cpus0.iew.branchMispredicts      1926740                       # Number of branch mispredicts detected at execute
system.switch_cpus0.iew.iewExecutedInsts    126071601                       # Number of executed instructions
system.switch_cpus0.iew.iewExecLoadInsts     21953928                       # Number of load instructions executed
system.switch_cpus0.iew.iewExecSquashedInsts      1119023                       # Number of squashed instructions skipped in execute
system.switch_cpus0.iew.exec_swp                    0                       # number of swp insts executed
system.switch_cpus0.iew.exec_nop                    1                       # number of nop insts executed
system.switch_cpus0.iew.exec_refs            26069984                       # number of memory reference insts executed
system.switch_cpus0.iew.exec_branches        19488096                       # Number of branches executed
system.switch_cpus0.iew.exec_stores           4116056                       # Number of stores executed
system.switch_cpus0.iew.exec_rate            0.449038                       # Inst execution rate
system.switch_cpus0.iew.wb_sent             124271467                       # cumulative count of insts sent to commit
system.switch_cpus0.iew.wb_count            124236870                       # cumulative count of insts written-back
system.switch_cpus0.iew.wb_producers         71059369                       # num instructions producing a value
system.switch_cpus0.iew.wb_consumers        163937997                       # num instructions consuming a value
system.switch_cpus0.iew.wb_penalized                0                       # number of instrctions required to write to 'other' IQ
system.switch_cpus0.iew.wb_rate              0.442503                       # insts written-back per cycle
system.switch_cpus0.iew.wb_fanout            0.433453                       # average fanout of values written-back
system.switch_cpus0.iew.wb_penalized_rate            0                       # fraction of instructions written-back that wrote to 'other' IQ
system.switch_cpus0.commit.commitCommittedInsts    100000007                       # The number of committed instructions
system.switch_cpus0.commit.commitCommittedOps    112649212                       # The number of committed instructions
system.switch_cpus0.commit.commitSquashedInsts     21290037                       # The number of squashed insts skipped by commit
system.switch_cpus0.commit.commitNonSpecStalls        18440                       # The number of times commit has been forced to stall to communicate backwards
system.switch_cpus0.commit.branchMispredicts      1835116                       # The number of times a branch was mispredicted
system.switch_cpus0.commit.committed_per_cycle::samples    254234779                       # Number of insts commited each cycle
system.switch_cpus0.commit.committed_per_cycle::mean     0.443091                       # Number of insts commited each cycle
system.switch_cpus0.commit.committed_per_cycle::stdev     1.292964                       # Number of insts commited each cycle
system.switch_cpus0.commit.committed_per_cycle::underflows            0      0.00%      0.00% # Number of insts commited each cycle
system.switch_cpus0.commit.committed_per_cycle::0    212016033     83.39%     83.39% # Number of insts commited each cycle
system.switch_cpus0.commit.committed_per_cycle::1     15997215      6.29%     89.69% # Number of insts commited each cycle
system.switch_cpus0.commit.committed_per_cycle::2     12511731      4.92%     94.61% # Number of insts commited each cycle
system.switch_cpus0.commit.committed_per_cycle::3      2472639      0.97%     95.58% # Number of insts commited each cycle
system.switch_cpus0.commit.committed_per_cycle::4      3114172      1.22%     96.80% # Number of insts commited each cycle
system.switch_cpus0.commit.committed_per_cycle::5      1054920      0.41%     97.22% # Number of insts commited each cycle
system.switch_cpus0.commit.committed_per_cycle::6      4528423      1.78%     99.00% # Number of insts commited each cycle
system.switch_cpus0.commit.committed_per_cycle::7      1008376      0.40%     99.40% # Number of insts commited each cycle
system.switch_cpus0.commit.committed_per_cycle::8      1531270      0.60%    100.00% # Number of insts commited each cycle
system.switch_cpus0.commit.committed_per_cycle::overflows            0      0.00%    100.00% # Number of insts commited each cycle
system.switch_cpus0.commit.committed_per_cycle::min_value            0                       # Number of insts commited each cycle
system.switch_cpus0.commit.committed_per_cycle::max_value            8                       # Number of insts commited each cycle
system.switch_cpus0.commit.committed_per_cycle::total    254234779                       # Number of insts commited each cycle
system.switch_cpus0.commit.committedInsts    100000007                       # Number of instructions committed
system.switch_cpus0.commit.committedOps     112649212                       # Number of ops (including micro ops) committed
system.switch_cpus0.commit.swp_count                0                       # Number of s/w prefetches committed
system.switch_cpus0.commit.refs              23554717                       # Number of memory references committed
system.switch_cpus0.commit.loads             19525809                       # Number of loads committed
system.switch_cpus0.commit.membars               9220                       # Number of memory barriers committed
system.switch_cpus0.commit.branches          17774062                       # Number of branches committed
system.switch_cpus0.commit.fp_insts                 0                       # Number of committed floating point instructions.
system.switch_cpus0.commit.int_insts         97983637                       # Number of committed integer instructions.
system.switch_cpus0.commit.function_calls      1421934                       # Number of function calls committed.
system.switch_cpus0.commit.bw_lim_events      1531270                       # number cycles where commit BW limit reached
system.switch_cpus0.commit.bw_limited               0                       # number of insts not committed due to BW limits
system.switch_cpus0.rob.rob_reads           386642758                       # The number of ROB reads
system.switch_cpus0.rob.rob_writes          271619845                       # The number of ROB writes
system.switch_cpus0.timesIdled                6034495                       # Number of times that the entire CPU went into an idle state and unscheduled itself
system.switch_cpus0.idleCycles               22783532                       # Total number of cycles that the CPU has spent unscheduled due to idling
system.switch_cpus0.committedInsts          100000007                       # Number of Instructions Simulated
system.switch_cpus0.committedOps            112649212                       # Number of Ops (including micro ops) Simulated
system.switch_cpus0.committedInsts_total    100000007                       # Number of Instructions Simulated
system.switch_cpus0.cpi                      2.807596                       # CPI: Cycles Per Instruction
system.switch_cpus0.cpi_total                2.807596                       # CPI: Total CPI of All Threads
system.switch_cpus0.ipc                      0.356177                       # IPC: Instructions Per Cycle
system.switch_cpus0.ipc_total                0.356177                       # IPC: Total IPC of All Threads
system.switch_cpus0.int_regfile_reads       583819803                       # number of integer regfile reads
system.switch_cpus0.int_regfile_writes      162034060                       # number of integer regfile writes
system.switch_cpus0.misc_regfile_reads      142342808                       # number of misc regfile reads
system.switch_cpus0.misc_regfile_writes         18440                       # number of misc regfile writes
system.switch_cpus1.dtb.inst_hits                   0                       # ITB inst hits
system.switch_cpus1.dtb.inst_misses                 0                       # ITB inst misses
system.switch_cpus1.dtb.read_hits                   0                       # DTB read hits
system.switch_cpus1.dtb.read_misses                 0                       # DTB read misses
system.switch_cpus1.dtb.write_hits                  0                       # DTB write hits
system.switch_cpus1.dtb.write_misses                0                       # DTB write misses
system.switch_cpus1.dtb.flush_tlb                   0                       # Number of times complete TLB was flushed
system.switch_cpus1.dtb.flush_tlb_mva               0                       # Number of times TLB was flushed by MVA
system.switch_cpus1.dtb.flush_tlb_mva_asid            0                       # Number of times TLB was flushed by MVA & ASID
system.switch_cpus1.dtb.flush_tlb_asid              0                       # Number of times TLB was flushed by ASID
system.switch_cpus1.dtb.flush_entries               0                       # Number of entries that have been flushed from TLB
system.switch_cpus1.dtb.align_faults                0                       # Number of TLB faults due to alignment restrictions
system.switch_cpus1.dtb.prefetch_faults             0                       # Number of TLB faults due to prefetch
system.switch_cpus1.dtb.domain_faults               0                       # Number of TLB faults due to domain restrictions
system.switch_cpus1.dtb.perms_faults                0                       # Number of TLB faults due to permissions restrictions
system.switch_cpus1.dtb.read_accesses               0                       # DTB read accesses
system.switch_cpus1.dtb.write_accesses              0                       # DTB write accesses
system.switch_cpus1.dtb.inst_accesses               0                       # ITB inst accesses
system.switch_cpus1.dtb.hits                        0                       # DTB hits
system.switch_cpus1.dtb.misses                      0                       # DTB misses
system.switch_cpus1.dtb.accesses                    0                       # DTB accesses
system.switch_cpus1.itb.inst_hits                   0                       # ITB inst hits
system.switch_cpus1.itb.inst_misses                 0                       # ITB inst misses
system.switch_cpus1.itb.read_hits                   0                       # DTB read hits
system.switch_cpus1.itb.read_misses                 0                       # DTB read misses
system.switch_cpus1.itb.write_hits                  0                       # DTB write hits
system.switch_cpus1.itb.write_misses                0                       # DTB write misses
system.switch_cpus1.itb.flush_tlb                   0                       # Number of times complete TLB was flushed
system.switch_cpus1.itb.flush_tlb_mva               0                       # Number of times TLB was flushed by MVA
system.switch_cpus1.itb.flush_tlb_mva_asid            0                       # Number of times TLB was flushed by MVA & ASID
system.switch_cpus1.itb.flush_tlb_asid              0                       # Number of times TLB was flushed by ASID
system.switch_cpus1.itb.flush_entries               0                       # Number of entries that have been flushed from TLB
system.switch_cpus1.itb.align_faults                0                       # Number of TLB faults due to alignment restrictions
system.switch_cpus1.itb.prefetch_faults             0                       # Number of TLB faults due to prefetch
system.switch_cpus1.itb.domain_faults               0                       # Number of TLB faults due to domain restrictions
system.switch_cpus1.itb.perms_faults                0                       # Number of TLB faults due to permissions restrictions
system.switch_cpus1.itb.read_accesses               0                       # DTB read accesses
system.switch_cpus1.itb.write_accesses              0                       # DTB write accesses
system.switch_cpus1.itb.inst_accesses               0                       # ITB inst accesses
system.switch_cpus1.itb.hits                        0                       # DTB hits
system.switch_cpus1.itb.misses                      0                       # DTB misses
system.switch_cpus1.itb.accesses                    0                       # DTB accesses
system.cpu1.workload.num_syscalls                   0                       # Number of system calls
system.switch_cpus1.numCycles               280759579                       # number of cpu cycles simulated
system.switch_cpus1.numWorkItemsStarted             0                       # number of work items this cpu started
system.switch_cpus1.numWorkItemsCompleted            0                       # number of work items this cpu completed
system.switch_cpus1.BPredUnit.lookups        23069291                       # Number of BP lookups
system.switch_cpus1.BPredUnit.condPredicted     18857977                       # Number of conditional branches predicted
system.switch_cpus1.BPredUnit.condIncorrect      2253405                       # Number of conditional branches incorrect
system.switch_cpus1.BPredUnit.BTBLookups      9633121                       # Number of BTB lookups
system.switch_cpus1.BPredUnit.BTBHits         9071030                       # Number of BTB hits
system.switch_cpus1.BPredUnit.BTBCorrect            0                       # Number of correct BTB predictions (this stat may not work properly.
system.switch_cpus1.BPredUnit.usedRAS         2367977                       # Number of times the RAS was used to get a target.
system.switch_cpus1.BPredUnit.RASInCorrect       102280                       # Number of incorrect RAS predictions.
system.switch_cpus1.fetch.icacheStallCycles    222487827                       # Number of cycles fetch is stalled on an Icache miss
system.switch_cpus1.fetch.Insts             129513485                       # Number of instructions fetch has processed
system.switch_cpus1.fetch.Branches           23069291                       # Number of branches that fetch encountered
system.switch_cpus1.fetch.predictedBranches     11439007                       # Number of branches that fetch has predicted taken
system.switch_cpus1.fetch.Cycles             27000838                       # Number of cycles fetch has run and was not squashing or blocked
system.switch_cpus1.fetch.SquashCycles        6225608                       # Number of cycles fetch has spent squashing
system.switch_cpus1.fetch.BlockedCycles       5216485                       # Number of cycles fetch has spent blocked
system.switch_cpus1.fetch.PendingTrapStallCycles            6                       # Number of stall cycles due to pending traps
system.switch_cpus1.fetch.CacheLines         13629311                       # Number of cache lines fetched
system.switch_cpus1.fetch.IcacheSquashes      2254998                       # Number of outstanding Icache misses that were squashed
system.switch_cpus1.fetch.rateDist::samples    258639311                       # Number of instructions fetched each cycle (Total)
system.switch_cpus1.fetch.rateDist::mean     0.614179                       # Number of instructions fetched each cycle (Total)
system.switch_cpus1.fetch.rateDist::stdev     1.957635                       # Number of instructions fetched each cycle (Total)
system.switch_cpus1.fetch.rateDist::underflows            0      0.00%      0.00% # Number of instructions fetched each cycle (Total)
system.switch_cpus1.fetch.rateDist::0       231638473     89.56%     89.56% # Number of instructions fetched each cycle (Total)
system.switch_cpus1.fetch.rateDist::1         1301367      0.50%     90.06% # Number of instructions fetched each cycle (Total)
system.switch_cpus1.fetch.rateDist::2         1980475      0.77%     90.83% # Number of instructions fetched each cycle (Total)
system.switch_cpus1.fetch.rateDist::3         2705044      1.05%     91.88% # Number of instructions fetched each cycle (Total)
system.switch_cpus1.fetch.rateDist::4         2776836      1.07%     92.95% # Number of instructions fetched each cycle (Total)
system.switch_cpus1.fetch.rateDist::5         2318324      0.90%     93.85% # Number of instructions fetched each cycle (Total)
system.switch_cpus1.fetch.rateDist::6         1317886      0.51%     94.35% # Number of instructions fetched each cycle (Total)
system.switch_cpus1.fetch.rateDist::7         1940162      0.75%     95.10% # Number of instructions fetched each cycle (Total)
system.switch_cpus1.fetch.rateDist::8        12660744      4.90%    100.00% # Number of instructions fetched each cycle (Total)
system.switch_cpus1.fetch.rateDist::overflows            0      0.00%    100.00% # Number of instructions fetched each cycle (Total)
system.switch_cpus1.fetch.rateDist::min_value            0                       # Number of instructions fetched each cycle (Total)
system.switch_cpus1.fetch.rateDist::max_value            8                       # Number of instructions fetched each cycle (Total)
system.switch_cpus1.fetch.rateDist::total    258639311                       # Number of instructions fetched each cycle (Total)
system.switch_cpus1.fetch.branchRate         0.082167                       # Number of branch fetches per cycle
system.switch_cpus1.fetch.rate               0.461297                       # Number of inst fetches per cycle
system.switch_cpus1.decode.IdleCycles       219943619                       # Number of cycles decode is idle
system.switch_cpus1.decode.BlockedCycles      7781111                       # Number of cycles decode is blocked
system.switch_cpus1.decode.RunCycles         26929672                       # Number of cycles decode is running
system.switch_cpus1.decode.UnblockCycles        50985                       # Number of cycles decode is unblocking
system.switch_cpus1.decode.SquashCycles       3933921                       # Number of cycles decode is squashing
system.switch_cpus1.decode.BranchResolved      3809516                       # Number of times decode resolved a branch
system.switch_cpus1.decode.BranchMispred          234                       # Number of times decode detected a branch misprediction
system.switch_cpus1.decode.DecodedInsts     158723728                       # Number of instructions handled by decode
system.switch_cpus1.decode.SquashedInsts         1296                       # Number of squashed instructions handled by decode
system.switch_cpus1.rename.SquashCycles       3933921                       # Number of cycles rename is squashing
system.switch_cpus1.rename.IdleCycles       220563570                       # Number of cycles rename is idle
system.switch_cpus1.rename.BlockCycles        1493388                       # Number of cycles rename is blocking
system.switch_cpus1.rename.serializeStallCycles      4723629                       # count of cycles rename stalled for serializing inst
system.switch_cpus1.rename.RunCycles         26371346                       # Number of cycles rename is running
system.switch_cpus1.rename.UnblockCycles      1553454                       # Number of cycles rename is unblocking
system.switch_cpus1.rename.RenamedInsts     158621934                       # Number of instructions processed by rename
system.switch_cpus1.rename.ROBFullEvents         1397                       # Number of times rename has blocked due to ROB full
system.switch_cpus1.rename.IQFullEvents        350194                       # Number of times rename has blocked due to IQ full
system.switch_cpus1.rename.LSQFullEvents       620432                       # Number of times rename has blocked due to LSQ full
system.switch_cpus1.rename.FullRegisterEvents         1237                       # Number of times there has been no free registers
system.switch_cpus1.rename.RenamedOperands    220423833                       # Number of destination operands rename has renamed
system.switch_cpus1.rename.RenameLookups    738199267                       # Number of register rename lookups that rename has made
system.switch_cpus1.rename.int_rename_lookups    738199267                       # Number of integer rename lookups
system.switch_cpus1.rename.CommittedMaps    190785118                       # Number of HB maps that are committed
system.switch_cpus1.rename.UndoneMaps        29638715                       # Number of HB maps that are undone due to squashing
system.switch_cpus1.rename.serializingInsts        44270                       # count of serializing insts renamed
system.switch_cpus1.rename.tempSerializingInsts        25646                       # count of temporary serializing insts renamed
system.switch_cpus1.rename.skidInsts          4512898                       # count of insts added to the skid buffer
system.switch_cpus1.memDep0.insertedLoads     15084481                       # Number of loads inserted to the mem dependence unit.
system.switch_cpus1.memDep0.insertedStores      8261375                       # Number of stores inserted to the mem dependence unit.
system.switch_cpus1.memDep0.conflictingLoads       145365                       # Number of conflicting loads.
system.switch_cpus1.memDep0.conflictingStores      1791156                       # Number of conflicting stores.
system.switch_cpus1.iq.iqInstsAdded         158404871                       # Number of instructions added to the IQ (excludes non-spec)
system.switch_cpus1.iq.iqNonSpecInstsAdded        44245                       # Number of non-speculative instructions added to the IQ
system.switch_cpus1.iq.iqInstsIssued        150371984                       # Number of instructions issued
system.switch_cpus1.iq.iqSquashedInstsIssued        30517                       # Number of squashed instructions issued
system.switch_cpus1.iq.iqSquashedInstsExamined     17827242                       # Number of squashed instructions iterated over during squash; mainly for profiling
system.switch_cpus1.iq.iqSquashedOperandsExamined     42174428                       # Number of squashed operands that are examined and possibly removed from graph
system.switch_cpus1.iq.iqSquashedNonSpecRemoved         6997                       # Number of squashed non-spec instructions that were removed
system.switch_cpus1.iq.issued_per_cycle::samples    258639311                       # Number of insts issued each cycle
system.switch_cpus1.iq.issued_per_cycle::mean     0.581396                       # Number of insts issued each cycle
system.switch_cpus1.iq.issued_per_cycle::stdev     1.270574                       # Number of insts issued each cycle
system.switch_cpus1.iq.issued_per_cycle::underflows            0      0.00%      0.00% # Number of insts issued each cycle
system.switch_cpus1.iq.issued_per_cycle::0    195034691     75.41%     75.41% # Number of insts issued each cycle
system.switch_cpus1.iq.issued_per_cycle::1     25947826     10.03%     85.44% # Number of insts issued each cycle
system.switch_cpus1.iq.issued_per_cycle::2     13419945      5.19%     90.63% # Number of insts issued each cycle
system.switch_cpus1.iq.issued_per_cycle::3     10086865      3.90%     94.53% # Number of insts issued each cycle
system.switch_cpus1.iq.issued_per_cycle::4      7847570      3.03%     97.56% # Number of insts issued each cycle
system.switch_cpus1.iq.issued_per_cycle::5      3152074      1.22%     98.78% # Number of insts issued each cycle
system.switch_cpus1.iq.issued_per_cycle::6      2006913      0.78%     99.56% # Number of insts issued each cycle
system.switch_cpus1.iq.issued_per_cycle::7      1015871      0.39%     99.95% # Number of insts issued each cycle
system.switch_cpus1.iq.issued_per_cycle::8       127556      0.05%    100.00% # Number of insts issued each cycle
system.switch_cpus1.iq.issued_per_cycle::overflows            0      0.00%    100.00% # Number of insts issued each cycle
system.switch_cpus1.iq.issued_per_cycle::min_value            0                       # Number of insts issued each cycle
system.switch_cpus1.iq.issued_per_cycle::max_value            8                       # Number of insts issued each cycle
system.switch_cpus1.iq.issued_per_cycle::total    258639311                       # Number of insts issued each cycle
system.switch_cpus1.iq.fu_full::No_OpClass            0      0.00%      0.00% # attempts to use FU when none available
system.switch_cpus1.iq.fu_full::IntAlu          26912     10.10%     10.10% # attempts to use FU when none available
system.switch_cpus1.iq.fu_full::IntMult             0      0.00%     10.10% # attempts to use FU when none available
system.switch_cpus1.iq.fu_full::IntDiv              0      0.00%     10.10% # attempts to use FU when none available
system.switch_cpus1.iq.fu_full::FloatAdd            0      0.00%     10.10% # attempts to use FU when none available
system.switch_cpus1.iq.fu_full::FloatCmp            0      0.00%     10.10% # attempts to use FU when none available
system.switch_cpus1.iq.fu_full::FloatCvt            0      0.00%     10.10% # attempts to use FU when none available
system.switch_cpus1.iq.fu_full::FloatMult            0      0.00%     10.10% # attempts to use FU when none available
system.switch_cpus1.iq.fu_full::FloatDiv            0      0.00%     10.10% # attempts to use FU when none available
system.switch_cpus1.iq.fu_full::FloatSqrt            0      0.00%     10.10% # attempts to use FU when none available
system.switch_cpus1.iq.fu_full::SimdAdd             0      0.00%     10.10% # attempts to use FU when none available
system.switch_cpus1.iq.fu_full::SimdAddAcc            0      0.00%     10.10% # attempts to use FU when none available
system.switch_cpus1.iq.fu_full::SimdAlu             0      0.00%     10.10% # attempts to use FU when none available
system.switch_cpus1.iq.fu_full::SimdCmp             0      0.00%     10.10% # attempts to use FU when none available
system.switch_cpus1.iq.fu_full::SimdCvt             0      0.00%     10.10% # attempts to use FU when none available
system.switch_cpus1.iq.fu_full::SimdMisc            0      0.00%     10.10% # attempts to use FU when none available
system.switch_cpus1.iq.fu_full::SimdMult            0      0.00%     10.10% # attempts to use FU when none available
system.switch_cpus1.iq.fu_full::SimdMultAcc            0      0.00%     10.10% # attempts to use FU when none available
system.switch_cpus1.iq.fu_full::SimdShift            0      0.00%     10.10% # attempts to use FU when none available
system.switch_cpus1.iq.fu_full::SimdShiftAcc            0      0.00%     10.10% # attempts to use FU when none available
system.switch_cpus1.iq.fu_full::SimdSqrt            0      0.00%     10.10% # attempts to use FU when none available
system.switch_cpus1.iq.fu_full::SimdFloatAdd            0      0.00%     10.10% # attempts to use FU when none available
system.switch_cpus1.iq.fu_full::SimdFloatAlu            0      0.00%     10.10% # attempts to use FU when none available
system.switch_cpus1.iq.fu_full::SimdFloatCmp            0      0.00%     10.10% # attempts to use FU when none available
system.switch_cpus1.iq.fu_full::SimdFloatCvt            0      0.00%     10.10% # attempts to use FU when none available
system.switch_cpus1.iq.fu_full::SimdFloatDiv            0      0.00%     10.10% # attempts to use FU when none available
system.switch_cpus1.iq.fu_full::SimdFloatMisc            0      0.00%     10.10% # attempts to use FU when none available
system.switch_cpus1.iq.fu_full::SimdFloatMult            0      0.00%     10.10% # attempts to use FU when none available
system.switch_cpus1.iq.fu_full::SimdFloatMultAcc            0      0.00%     10.10% # attempts to use FU when none available
system.switch_cpus1.iq.fu_full::SimdFloatSqrt            0      0.00%     10.10% # attempts to use FU when none available
system.switch_cpus1.iq.fu_full::MemRead         98239     36.85%     46.95% # attempts to use FU when none available
system.switch_cpus1.iq.fu_full::MemWrite       141423     53.05%    100.00% # attempts to use FU when none available
system.switch_cpus1.iq.fu_full::IprAccess            0      0.00%    100.00% # attempts to use FU when none available
system.switch_cpus1.iq.fu_full::InstPrefetch            0      0.00%    100.00% # attempts to use FU when none available
system.switch_cpus1.iq.FU_type_0::No_OpClass            0      0.00%      0.00% # Type of FU issued
system.switch_cpus1.iq.FU_type_0::IntAlu    125982845     83.78%     83.78% # Type of FU issued
system.switch_cpus1.iq.FU_type_0::IntMult      2325093      1.55%     85.33% # Type of FU issued
system.switch_cpus1.iq.FU_type_0::IntDiv            0      0.00%     85.33% # Type of FU issued
system.switch_cpus1.iq.FU_type_0::FloatAdd            0      0.00%     85.33% # Type of FU issued
system.switch_cpus1.iq.FU_type_0::FloatCmp            0      0.00%     85.33% # Type of FU issued
system.switch_cpus1.iq.FU_type_0::FloatCvt            0      0.00%     85.33% # Type of FU issued
system.switch_cpus1.iq.FU_type_0::FloatMult            0      0.00%     85.33% # Type of FU issued
system.switch_cpus1.iq.FU_type_0::FloatDiv            0      0.00%     85.33% # Type of FU issued
system.switch_cpus1.iq.FU_type_0::FloatSqrt            0      0.00%     85.33% # Type of FU issued
system.switch_cpus1.iq.FU_type_0::SimdAdd            0      0.00%     85.33% # Type of FU issued
system.switch_cpus1.iq.FU_type_0::SimdAddAcc            0      0.00%     85.33% # Type of FU issued
system.switch_cpus1.iq.FU_type_0::SimdAlu            0      0.00%     85.33% # Type of FU issued
system.switch_cpus1.iq.FU_type_0::SimdCmp            0      0.00%     85.33% # Type of FU issued
system.switch_cpus1.iq.FU_type_0::SimdCvt            0      0.00%     85.33% # Type of FU issued
system.switch_cpus1.iq.FU_type_0::SimdMisc            0      0.00%     85.33% # Type of FU issued
system.switch_cpus1.iq.FU_type_0::SimdMult            0      0.00%     85.33% # Type of FU issued
system.switch_cpus1.iq.FU_type_0::SimdMultAcc            0      0.00%     85.33% # Type of FU issued
system.switch_cpus1.iq.FU_type_0::SimdShift            0      0.00%     85.33% # Type of FU issued
system.switch_cpus1.iq.FU_type_0::SimdShiftAcc            0      0.00%     85.33% # Type of FU issued
system.switch_cpus1.iq.FU_type_0::SimdSqrt            0      0.00%     85.33% # Type of FU issued
system.switch_cpus1.iq.FU_type_0::SimdFloatAdd            0      0.00%     85.33% # Type of FU issued
system.switch_cpus1.iq.FU_type_0::SimdFloatAlu            0      0.00%     85.33% # Type of FU issued
system.switch_cpus1.iq.FU_type_0::SimdFloatCmp            0      0.00%     85.33% # Type of FU issued
system.switch_cpus1.iq.FU_type_0::SimdFloatCvt            0      0.00%     85.33% # Type of FU issued
system.switch_cpus1.iq.FU_type_0::SimdFloatDiv            0      0.00%     85.33% # Type of FU issued
system.switch_cpus1.iq.FU_type_0::SimdFloatMisc        18624      0.01%     85.34% # Type of FU issued
system.switch_cpus1.iq.FU_type_0::SimdFloatMult            0      0.00%     85.34% # Type of FU issued
system.switch_cpus1.iq.FU_type_0::SimdFloatMultAcc            0      0.00%     85.34% # Type of FU issued
system.switch_cpus1.iq.FU_type_0::SimdFloatSqrt            0      0.00%     85.34% # Type of FU issued
system.switch_cpus1.iq.FU_type_0::MemRead     13844855      9.21%     94.55% # Type of FU issued
system.switch_cpus1.iq.FU_type_0::MemWrite      8200567      5.45%    100.00% # Type of FU issued
system.switch_cpus1.iq.FU_type_0::IprAccess            0      0.00%    100.00% # Type of FU issued
system.switch_cpus1.iq.FU_type_0::InstPrefetch            0      0.00%    100.00% # Type of FU issued
system.switch_cpus1.iq.FU_type_0::total     150371984                       # Type of FU issued
system.switch_cpus1.iq.rate                  0.535590                       # Inst issue rate
system.switch_cpus1.iq.fu_busy_cnt             266574                       # FU busy when requested
system.switch_cpus1.iq.fu_busy_rate          0.001773                       # FU busy rate (busy events/executed inst)
system.switch_cpus1.iq.int_inst_queue_reads    559680370                       # Number of integer instruction queue reads
system.switch_cpus1.iq.int_inst_queue_writes    176276736                       # Number of integer instruction queue writes
system.switch_cpus1.iq.int_inst_queue_wakeup_accesses    148102788                       # Number of integer instruction queue wakeup accesses
system.switch_cpus1.iq.fp_inst_queue_reads            0                       # Number of floating instruction queue reads
system.switch_cpus1.iq.fp_inst_queue_writes            0                       # Number of floating instruction queue writes
system.switch_cpus1.iq.fp_inst_queue_wakeup_accesses            0                       # Number of floating instruction queue wakeup accesses
system.switch_cpus1.iq.int_alu_accesses     150638558                       # Number of integer alu accesses
system.switch_cpus1.iq.fp_alu_accesses              0                       # Number of floating point alu accesses
system.switch_cpus1.iew.lsq.thread0.forwLoads       349730                       # Number of loads that had data forwarded from stores
system.switch_cpus1.iew.lsq.thread0.invAddrLoads            0                       # Number of loads ignored due to an invalid address
system.switch_cpus1.iew.lsq.thread0.squashedLoads      2494872                       # Number of loads squashed
system.switch_cpus1.iew.lsq.thread0.ignoredResponses           35                       # Number of memory responses ignored because the instruction is squashed
system.switch_cpus1.iew.lsq.thread0.memOrderViolation          378                       # Number of memory ordering violations
system.switch_cpus1.iew.lsq.thread0.squashedStores       192613                       # Number of stores squashed
system.switch_cpus1.iew.lsq.thread0.invAddrSwpfs            0                       # Number of software prefetches ignored due to an invalid address
system.switch_cpus1.iew.lsq.thread0.blockedLoads            0                       # Number of blocked loads due to partial load-store forwarding
system.switch_cpus1.iew.lsq.thread0.rescheduledLoads            0                       # Number of loads that were rescheduled
system.switch_cpus1.iew.lsq.thread0.cacheBlocked           86                       # Number of times an access to memory failed due to the cache being blocked
system.switch_cpus1.iew.iewIdleCycles               0                       # Number of cycles IEW is idle
system.switch_cpus1.iew.iewSquashCycles       3933921                       # Number of cycles IEW is squashing
system.switch_cpus1.iew.iewBlockCycles        1177279                       # Number of cycles IEW is blocking
system.switch_cpus1.iew.iewUnblockCycles       140802                       # Number of cycles IEW is unblocking
system.switch_cpus1.iew.iewDispatchedInsts    158449117                       # Number of instructions dispatched to IQ
system.switch_cpus1.iew.iewDispSquashedInsts        72851                       # Number of squashed instructions skipped by dispatch
system.switch_cpus1.iew.iewDispLoadInsts     15084481                       # Number of dispatched load instructions
system.switch_cpus1.iew.iewDispStoreInsts      8261375                       # Number of dispatched store instructions
system.switch_cpus1.iew.iewDispNonSpecInsts        25621                       # Number of dispatched non-speculative instructions
system.switch_cpus1.iew.iewIQFullEvents        104152                       # Number of times the IQ has become full, causing a stall
system.switch_cpus1.iew.iewLSQFullEvents            0                       # Number of times the LSQ has become full, causing a stall
system.switch_cpus1.iew.memOrderViolationEvents          378                       # Number of memory order violations
system.switch_cpus1.iew.predictedTakenIncorrect      1314874                       # Number of branches that were predicted taken incorrectly
system.switch_cpus1.iew.predictedNotTakenIncorrect      1275592                       # Number of branches that were predicted not taken incorrectly
system.switch_cpus1.iew.branchMispredicts      2590466                       # Number of branch mispredicts detected at execute
system.switch_cpus1.iew.iewExecutedInsts    148318796                       # Number of executed instructions
system.switch_cpus1.iew.iewExecLoadInsts     13052653                       # Number of load instructions executed
system.switch_cpus1.iew.iewExecSquashedInsts      2053188                       # Number of squashed instructions skipped in execute
system.switch_cpus1.iew.exec_swp                    0                       # number of swp insts executed
system.switch_cpus1.iew.exec_nop                    1                       # number of nop insts executed
system.switch_cpus1.iew.exec_refs            21251104                       # number of memory reference insts executed
system.switch_cpus1.iew.exec_branches        20972303                       # Number of branches executed
system.switch_cpus1.iew.exec_stores           8198451                       # Number of stores executed
system.switch_cpus1.iew.exec_rate            0.528277                       # Inst execution rate
system.switch_cpus1.iew.wb_sent             148102909                       # cumulative count of insts sent to commit
system.switch_cpus1.iew.wb_count            148102788                       # cumulative count of insts written-back
system.switch_cpus1.iew.wb_producers         85247140                       # num instructions producing a value
system.switch_cpus1.iew.wb_consumers        228359773                       # num instructions consuming a value
system.switch_cpus1.iew.wb_penalized                0                       # number of instrctions required to write to 'other' IQ
system.switch_cpus1.iew.wb_rate              0.527508                       # insts written-back per cycle
system.switch_cpus1.iew.wb_fanout            0.373302                       # average fanout of values written-back
system.switch_cpus1.iew.wb_penalized_rate            0                       # fraction of instructions written-back that wrote to 'other' IQ
system.switch_cpus1.commit.commitCommittedInsts    111735320                       # The number of committed instructions
system.switch_cpus1.commit.commitCommittedOps    137326625                       # The number of committed instructions
system.switch_cpus1.commit.commitSquashedInsts     21132079                       # The number of squashed insts skipped by commit
system.switch_cpus1.commit.commitNonSpecStalls        37248                       # The number of times commit has been forced to stall to communicate backwards
system.switch_cpus1.commit.branchMispredicts      2290809                       # The number of times a branch was mispredicted
system.switch_cpus1.commit.committed_per_cycle::samples    254705390                       # Number of insts commited each cycle
system.switch_cpus1.commit.committed_per_cycle::mean     0.539159                       # Number of insts commited each cycle
system.switch_cpus1.commit.committed_per_cycle::stdev     1.388879                       # Number of insts commited each cycle
system.switch_cpus1.commit.committed_per_cycle::underflows            0      0.00%      0.00% # Number of insts commited each cycle
system.switch_cpus1.commit.committed_per_cycle::0    198557318     77.96%     77.96% # Number of insts commited each cycle
system.switch_cpus1.commit.committed_per_cycle::1     27686165     10.87%     88.83% # Number of insts commited each cycle
system.switch_cpus1.commit.committed_per_cycle::2     10522002      4.13%     92.96% # Number of insts commited each cycle
system.switch_cpus1.commit.committed_per_cycle::3      5074947      1.99%     94.95% # Number of insts commited each cycle
system.switch_cpus1.commit.committed_per_cycle::4      4203767      1.65%     96.60% # Number of insts commited each cycle
system.switch_cpus1.commit.committed_per_cycle::5      2513887      0.99%     97.59% # Number of insts commited each cycle
system.switch_cpus1.commit.committed_per_cycle::6      2125051      0.83%     98.42% # Number of insts commited each cycle
system.switch_cpus1.commit.committed_per_cycle::7       941218      0.37%     98.79% # Number of insts commited each cycle
system.switch_cpus1.commit.committed_per_cycle::8      3081035      1.21%    100.00% # Number of insts commited each cycle
system.switch_cpus1.commit.committed_per_cycle::overflows            0      0.00%    100.00% # Number of insts commited each cycle
system.switch_cpus1.commit.committed_per_cycle::min_value            0                       # Number of insts commited each cycle
system.switch_cpus1.commit.committed_per_cycle::max_value            8                       # Number of insts commited each cycle
system.switch_cpus1.commit.committed_per_cycle::total    254705390                       # Number of insts commited each cycle
system.switch_cpus1.commit.committedInsts    111735320                       # Number of instructions committed
system.switch_cpus1.commit.committedOps     137326625                       # Number of ops (including micro ops) committed
[...]
system.cpu2.icache.ReadReq_miss_latency::total      2898775                       # number of ReadReq miss cycles
system.cpu2.icache.demand_miss_latency::switch_cpus2.inst      2898775                       # number of demand (read+write) miss cycles
system.cpu2.icache.demand_miss_latency::total      2898775                       # number of demand (read+write) miss cycles
system.cpu2.icache.overall_miss_latency::switch_cpus2.inst      2898775                       # number of overall miss cycles
system.cpu2.icache.overall_miss_latency::total      2898775                       # number of overall miss cycles
system.cpu2.icache.ReadReq_accesses::switch_cpus2.inst     13548681                       # number of ReadReq accesses(hits+misses)
system.cpu2.icache.ReadReq_accesses::total     13548681                       # number of ReadReq accesses(hits+misses)
system.cpu2.icache.demand_accesses::switch_cpus2.inst     13548681                       # number of demand (read+write) accesses
system.cpu2.icache.demand_accesses::total     13548681                       # number of demand (read+write) accesses
system.cpu2.icache.overall_accesses::switch_cpus2.inst     13548681                       # number of overall (read+write) accesses
system.cpu2.icache.overall_accesses::total     13548681                       # number of overall (read+write) accesses
system.cpu2.icache.ReadReq_miss_rate::switch_cpus2.inst     0.000001                       # miss rate for ReadReq accesses
system.cpu2.icache.ReadReq_miss_rate::total     0.000001                       # miss rate for ReadReq accesses
system.cpu2.icache.demand_miss_rate::switch_cpus2.inst     0.000001                       # miss rate for demand accesses
system.cpu2.icache.demand_miss_rate::total     0.000001                       # miss rate for demand accesses
system.cpu2.icache.overall_miss_rate::switch_cpus2.inst     0.000001                       # miss rate for overall accesses
system.cpu2.icache.overall_miss_rate::total     0.000001                       # miss rate for overall accesses
system.cpu2.icache.ReadReq_avg_miss_latency::switch_cpus2.inst 193251.666667                       # average ReadReq miss latency
system.cpu2.icache.ReadReq_avg_miss_latency::total 193251.666667                       # average ReadReq miss latency
system.cpu2.icache.demand_avg_miss_latency::switch_cpus2.inst 193251.666667                       # average overall miss latency
system.cpu2.icache.demand_avg_miss_latency::total 193251.666667                       # average overall miss latency
system.cpu2.icache.overall_avg_miss_latency::switch_cpus2.inst 193251.666667                       # average overall miss latency
system.cpu2.icache.overall_avg_miss_latency::total 193251.666667                       # average overall miss latency
system.cpu2.icache.blocked_cycles::no_mshrs            0                       # number of cycles access was blocked
system.cpu2.icache.blocked_cycles::no_targets            0                       # number of cycles access was blocked
system.cpu2.icache.blocked::no_mshrs                0                       # number of cycles access was blocked
system.cpu2.icache.blocked::no_targets              0                       # number of cycles access was blocked
system.cpu2.icache.avg_blocked_cycles::no_mshrs          nan                       # average number of cycles each access was blocked
system.cpu2.icache.avg_blocked_cycles::no_targets          nan                       # average number of cycles each access was blocked
system.cpu2.icache.fast_writes                      0                       # number of fast writes performed
system.cpu2.icache.cache_copies                     0                       # number of cache copies performed
system.cpu2.icache.ReadReq_mshr_hits::switch_cpus2.inst            2                       # number of ReadReq MSHR hits
system.cpu2.icache.ReadReq_mshr_hits::total            2                       # number of ReadReq MSHR hits
system.cpu2.icache.demand_mshr_hits::switch_cpus2.inst            2                       # number of demand (read+write) MSHR hits
system.cpu2.icache.demand_mshr_hits::total            2                       # number of demand (read+write) MSHR hits
system.cpu2.icache.overall_mshr_hits::switch_cpus2.inst            2                       # number of overall MSHR hits
system.cpu2.icache.overall_mshr_hits::total            2                       # number of overall MSHR hits
system.cpu2.icache.ReadReq_mshr_misses::switch_cpus2.inst           13                       # number of ReadReq MSHR misses
system.cpu2.icache.ReadReq_mshr_misses::total           13                       # number of ReadReq MSHR misses
system.cpu2.icache.demand_mshr_misses::switch_cpus2.inst           13                       # number of demand (read+write) MSHR misses
system.cpu2.icache.demand_mshr_misses::total           13                       # number of demand (read+write) MSHR misses
system.cpu2.icache.overall_mshr_misses::switch_cpus2.inst           13                       # number of overall MSHR misses
system.cpu2.icache.overall_mshr_misses::total           13                       # number of overall MSHR misses
system.cpu2.icache.ReadReq_mshr_miss_latency::switch_cpus2.inst      2472531                       # number of ReadReq MSHR miss cycles
system.cpu2.icache.ReadReq_mshr_miss_latency::total      2472531                       # number of ReadReq MSHR miss cycles
system.cpu2.icache.demand_mshr_miss_latency::switch_cpus2.inst      2472531                       # number of demand (read+write) MSHR miss cycles
system.cpu2.icache.demand_mshr_miss_latency::total      2472531                       # number of demand (read+write) MSHR miss cycles
system.cpu2.icache.overall_mshr_miss_latency::switch_cpus2.inst      2472531                       # number of overall MSHR miss cycles
system.cpu2.icache.overall_mshr_miss_latency::total      2472531                       # number of overall MSHR miss cycles
system.cpu2.icache.ReadReq_mshr_miss_rate::switch_cpus2.inst     0.000001                       # mshr miss rate for ReadReq accesses
system.cpu2.icache.ReadReq_mshr_miss_rate::total     0.000001                       # mshr miss rate for ReadReq accesses
system.cpu2.icache.demand_mshr_miss_rate::switch_cpus2.inst     0.000001                       # mshr miss rate for demand accesses
system.cpu2.icache.demand_mshr_miss_rate::total     0.000001                       # mshr miss rate for demand accesses
system.cpu2.icache.overall_mshr_miss_rate::switch_cpus2.inst     0.000001                       # mshr miss rate for overall accesses
system.cpu2.icache.overall_mshr_miss_rate::total     0.000001                       # mshr miss rate for overall accesses
system.cpu2.icache.ReadReq_avg_mshr_miss_latency::switch_cpus2.inst 190194.692308                       # average ReadReq mshr miss latency
system.cpu2.icache.ReadReq_avg_mshr_miss_latency::total 190194.692308                       # average ReadReq mshr miss latency
system.cpu2.icache.demand_avg_mshr_miss_latency::switch_cpus2.inst 190194.692308                       # average overall mshr miss latency
system.cpu2.icache.demand_avg_mshr_miss_latency::total 190194.692308                       # average overall mshr miss latency
system.cpu2.icache.overall_avg_mshr_miss_latency::switch_cpus2.inst 190194.692308                       # average overall mshr miss latency
system.cpu2.icache.overall_avg_mshr_miss_latency::total 190194.692308                       # average overall mshr miss latency
system.cpu2.icache.no_allocate_misses               0                       # Number of misses that were no-allocate
system.cpu2.dcache.replacements                 85643                       # number of replacements
system.cpu2.dcache.tagsinuse                      256                       # Cycle average of tags in use
system.cpu2.dcache.total_refs               194968730                       # Total number of references to valid blocks.
system.cpu2.dcache.sampled_refs                 85899                       # Sample count of references to valid blocks.
system.cpu2.dcache.avg_refs               2269.743885                       # Average number of references to valid blocks.
system.cpu2.dcache.warmup_cycle                     0                       # Cycle when the warmup percentage was hit.
system.cpu2.dcache.occ_blocks::switch_cpus2.data   232.319655                       # Average occupied blocks per requestor
system.cpu2.dcache.occ_blocks::cpu2.data    23.680345                       # Average occupied blocks per requestor
system.cpu2.dcache.occ_percent::switch_cpus2.data     0.907499                       # Average percentage of cache occupancy
system.cpu2.dcache.occ_percent::cpu2.data     0.092501                       # Average percentage of cache occupancy
system.cpu2.dcache.occ_percent::total               1                       # Average percentage of cache occupancy
system.cpu2.dcache.ReadReq_hits::switch_cpus2.data     10993888                       # number of ReadReq hits
system.cpu2.dcache.ReadReq_hits::total       10993888                       # number of ReadReq hits
system.cpu2.dcache.WriteReq_hits::switch_cpus2.data      8163005                       # number of WriteReq hits
system.cpu2.dcache.WriteReq_hits::total       8163005                       # number of WriteReq hits
system.cpu2.dcache.LoadLockedReq_hits::switch_cpus2.data        24468                       # number of LoadLockedReq hits
system.cpu2.dcache.LoadLockedReq_hits::total        24468                       # number of LoadLockedReq hits
system.cpu2.dcache.StoreCondReq_hits::switch_cpus2.data        19302                       # number of StoreCondReq hits
system.cpu2.dcache.StoreCondReq_hits::total        19302                       # number of StoreCondReq hits
system.cpu2.dcache.demand_hits::switch_cpus2.data     19156893                       # number of demand (read+write) hits
system.cpu2.dcache.demand_hits::total        19156893                       # number of demand (read+write) hits
system.cpu2.dcache.overall_hits::switch_cpus2.data     19156893                       # number of overall hits
system.cpu2.dcache.overall_hits::total       19156893                       # number of overall hits
system.cpu2.dcache.ReadReq_misses::switch_cpus2.data       205013                       # number of ReadReq misses
system.cpu2.dcache.ReadReq_misses::total       205013                       # number of ReadReq misses
system.cpu2.dcache.demand_misses::switch_cpus2.data       205013                       # number of demand (read+write) misses
system.cpu2.dcache.demand_misses::total        205013                       # number of demand (read+write) misses
system.cpu2.dcache.overall_misses::switch_cpus2.data       205013                       # number of overall misses
system.cpu2.dcache.overall_misses::total       205013                       # number of overall misses
system.cpu2.dcache.ReadReq_miss_latency::switch_cpus2.data  21110641488                       # number of ReadReq miss cycles
system.cpu2.dcache.ReadReq_miss_latency::total  21110641488                       # number of ReadReq miss cycles
system.cpu2.dcache.demand_miss_latency::switch_cpus2.data  21110641488                       # number of demand (read+write) miss cycles
system.cpu2.dcache.demand_miss_latency::total  21110641488                       # number of demand (read+write) miss cycles
system.cpu2.dcache.overall_miss_latency::switch_cpus2.data  21110641488                       # number of overall miss cycles
system.cpu2.dcache.overall_miss_latency::total  21110641488                       # number of overall miss cycles
system.cpu2.dcache.ReadReq_accesses::switch_cpus2.data     11198901                       # number of ReadReq accesses(hits+misses)
system.cpu2.dcache.ReadReq_accesses::total     11198901                       # number of ReadReq accesses(hits+misses)
system.cpu2.dcache.WriteReq_accesses::switch_cpus2.data      8163005                       # number of WriteReq accesses(hits+misses)
system.cpu2.dcache.WriteReq_accesses::total      8163005                       # number of WriteReq accesses(hits+misses)
system.cpu2.dcache.LoadLockedReq_accesses::switch_cpus2.data        24468                       # number of LoadLockedReq accesses(hits+misses)
system.cpu2.dcache.LoadLockedReq_accesses::total        24468                       # number of LoadLockedReq accesses(hits+misses)
system.cpu2.dcache.StoreCondReq_accesses::switch_cpus2.data        19302                       # number of StoreCondReq accesses(hits+misses)
system.cpu2.dcache.StoreCondReq_accesses::total        19302                       # number of StoreCondReq accesses(hits+misses)
system.cpu2.dcache.demand_accesses::switch_cpus2.data     19361906                       # number of demand (read+write) accesses
system.cpu2.dcache.demand_accesses::total     19361906                       # number of demand (read+write) accesses
system.cpu2.dcache.overall_accesses::switch_cpus2.data     19361906                       # number of overall (read+write) accesses
system.cpu2.dcache.overall_accesses::total     19361906                       # number of overall (read+write) accesses
system.cpu2.dcache.ReadReq_miss_rate::switch_cpus2.data     0.018307                       # miss rate for ReadReq accesses
system.cpu2.dcache.ReadReq_miss_rate::total     0.018307                       # miss rate for ReadReq accesses
system.cpu2.dcache.demand_miss_rate::switch_cpus2.data     0.010588                       # miss rate for demand accesses
system.cpu2.dcache.demand_miss_rate::total     0.010588                       # miss rate for demand accesses
system.cpu2.dcache.overall_miss_rate::switch_cpus2.data     0.010588                       # miss rate for overall accesses
system.cpu2.dcache.overall_miss_rate::total     0.010588                       # miss rate for overall accesses
system.cpu2.dcache.ReadReq_avg_miss_latency::switch_cpus2.data 102972.209021                       # average ReadReq miss latency
system.cpu2.dcache.ReadReq_avg_miss_latency::total 102972.209021                       # average ReadReq miss latency
system.cpu2.dcache.demand_avg_miss_latency::switch_cpus2.data 102972.209021                       # average overall miss latency
system.cpu2.dcache.demand_avg_miss_latency::total 102972.209021                       # average overall miss latency
system.cpu2.dcache.overall_avg_miss_latency::switch_cpus2.data 102972.209021                       # average overall miss latency
system.cpu2.dcache.overall_avg_miss_latency::total 102972.209021                       # average overall miss latency
system.cpu2.dcache.blocked_cycles::no_mshrs            0                       # number of cycles access was blocked
system.cpu2.dcache.blocked_cycles::no_targets            0                       # number of cycles access was blocked
system.cpu2.dcache.blocked::no_mshrs                0                       # number of cycles access was blocked
system.cpu2.dcache.blocked::no_targets              0                       # number of cycles access was blocked
system.cpu2.dcache.avg_blocked_cycles::no_mshrs          nan                       # average number of cycles each access was blocked
system.cpu2.dcache.avg_blocked_cycles::no_targets          nan                       # average number of cycles each access was blocked
system.cpu2.dcache.fast_writes                      0                       # number of fast writes performed
system.cpu2.dcache.cache_copies                     0                       # number of cache copies performed
system.cpu2.dcache.writebacks::writebacks        23333                       # number of writebacks
system.cpu2.dcache.writebacks::total            23333                       # number of writebacks
system.cpu2.dcache.ReadReq_mshr_hits::switch_cpus2.data       119370                       # number of ReadReq MSHR hits
system.cpu2.dcache.ReadReq_mshr_hits::total       119370                       # number of ReadReq MSHR hits
system.cpu2.dcache.demand_mshr_hits::switch_cpus2.data       119370                       # number of demand (read+write) MSHR hits
system.cpu2.dcache.demand_mshr_hits::total       119370                       # number of demand (read+write) MSHR hits
system.cpu2.dcache.overall_mshr_hits::switch_cpus2.data       119370                       # number of overall MSHR hits
system.cpu2.dcache.overall_mshr_hits::total       119370                       # number of overall MSHR hits
system.cpu2.dcache.ReadReq_mshr_misses::switch_cpus2.data        85643                       # number of ReadReq MSHR misses
system.cpu2.dcache.ReadReq_mshr_misses::total        85643                       # number of ReadReq MSHR misses
system.cpu2.dcache.demand_mshr_misses::switch_cpus2.data        85643                       # number of demand (read+write) MSHR misses
system.cpu2.dcache.demand_mshr_misses::total        85643                       # number of demand (read+write) MSHR misses
system.cpu2.dcache.overall_mshr_misses::switch_cpus2.data        85643                       # number of overall MSHR misses
system.cpu2.dcache.overall_mshr_misses::total        85643                       # number of overall MSHR misses
system.cpu2.dcache.ReadReq_mshr_miss_latency::switch_cpus2.data   7724373546                       # number of ReadReq MSHR miss cycles
system.cpu2.dcache.ReadReq_mshr_miss_latency::total   7724373546                       # number of ReadReq MSHR miss cycles
system.cpu2.dcache.demand_mshr_miss_latency::switch_cpus2.data   7724373546                       # number of demand (read+write) MSHR miss cycles
system.cpu2.dcache.demand_mshr_miss_latency::total   7724373546                       # number of demand (read+write) MSHR miss cycles
system.cpu2.dcache.overall_mshr_miss_latency::switch_cpus2.data   7724373546                       # number of overall MSHR miss cycles
system.cpu2.dcache.overall_mshr_miss_latency::total   7724373546                       # number of overall MSHR miss cycles
system.cpu2.dcache.ReadReq_mshr_miss_rate::switch_cpus2.data     0.007647                       # mshr miss rate for ReadReq accesses
system.cpu2.dcache.ReadReq_mshr_miss_rate::total     0.007647                       # mshr miss rate for ReadReq accesses
system.cpu2.dcache.demand_mshr_miss_rate::switch_cpus2.data     0.004423                       # mshr miss rate for demand accesses
system.cpu2.dcache.demand_mshr_miss_rate::total     0.004423                       # mshr miss rate for demand accesses
system.cpu2.dcache.overall_mshr_miss_rate::switch_cpus2.data     0.004423                       # mshr miss rate for overall accesses
system.cpu2.dcache.overall_mshr_miss_rate::total     0.004423                       # mshr miss rate for overall accesses
system.cpu2.dcache.ReadReq_avg_mshr_miss_latency::switch_cpus2.data 90192.701634                       # average ReadReq mshr miss latency
system.cpu2.dcache.ReadReq_avg_mshr_miss_latency::total 90192.701634                       # average ReadReq mshr miss latency
system.cpu2.dcache.demand_avg_mshr_miss_latency::switch_cpus2.data 90192.701634                       # average overall mshr miss latency
system.cpu2.dcache.demand_avg_mshr_miss_latency::total 90192.701634                       # average overall mshr miss latency
system.cpu2.dcache.overall_avg_mshr_miss_latency::switch_cpus2.data 90192.701634                       # average overall mshr miss latency
system.cpu2.dcache.overall_avg_mshr_miss_latency::total 90192.701634                       # average overall mshr miss latency
system.cpu2.dcache.no_allocate_misses               0                       # Number of misses that were no-allocate

---------- End Simulation Statistics   ----------
