
---------- Begin Simulation Statistics ----------
sim_seconds                                  0.099077                       # Number of seconds simulated
sim_ticks                                 99076880646                       # Number of ticks simulated
final_tick                               627153590148                       # Number of ticks from beginning of simulation (restored from checkpoints and never reset)
sim_freq                                 1000000000000                       # Frequency of simulated ticks
host_inst_rate                                 155096                       # Simulator instruction rate (inst/s)
host_op_rate                                   200941                       # Simulator op (including micro ops) rate (op/s)
host_tick_rate                                4815468                       # Simulator tick rate (ticks/s)
host_mem_usage                               16906036                       # Number of bytes of host memory used
host_seconds                                 20574.71                       # Real time elapsed on the host
sim_insts                                  3191053358                       # Number of instructions simulated
sim_ops                                    4134303840                       # Number of ops (including micro ops) simulated
system.physmem.bytes_read::switch_cpus0.inst         1792                       # Number of bytes read from this memory
system.physmem.bytes_read::switch_cpus0.data       686464                       # Number of bytes read from this memory
system.physmem.bytes_read::switch_cpus1.inst         1792                       # Number of bytes read from this memory
system.physmem.bytes_read::switch_cpus1.data      1333248                       # Number of bytes read from this memory
system.physmem.bytes_read::switch_cpus2.inst         1664                       # Number of bytes read from this memory
system.physmem.bytes_read::switch_cpus2.data      1029888                       # Number of bytes read from this memory
system.physmem.bytes_read::total              3054848                       # Number of bytes read from this memory
system.physmem.bytes_inst_read::switch_cpus0.inst         1792                       # Number of instructions bytes read from this memory
system.physmem.bytes_inst_read::switch_cpus1.inst         1792                       # Number of instructions bytes read from this memory
system.physmem.bytes_inst_read::switch_cpus2.inst         1664                       # Number of instructions bytes read from this memory
system.physmem.bytes_inst_read::total            5248                       # Number of instructions bytes read from this memory
system.physmem.bytes_written::writebacks      1302144                       # Number of bytes written to this memory
system.physmem.bytes_written::total           1302144                       # Number of bytes written to this memory
system.physmem.num_reads::switch_cpus0.inst           14                       # Number of read requests responded to by this memory
system.physmem.num_reads::switch_cpus0.data         5363                       # Number of read requests responded to by this memory
system.physmem.num_reads::switch_cpus1.inst           14                       # Number of read requests responded to by this memory
system.physmem.num_reads::switch_cpus1.data        10416                       # Number of read requests responded to by this memory
system.physmem.num_reads::switch_cpus2.inst           13                       # Number of read requests responded to by this memory
system.physmem.num_reads::switch_cpus2.data         8046                       # Number of read requests responded to by this memory
system.physmem.num_reads::total                 23866                       # Number of read requests responded to by this memory
system.physmem.num_writes::writebacks           10173                       # Number of write requests responded to by this memory
system.physmem.num_writes::functional               0                       # Number of write requests responded to by this memory
system.physmem.num_writes::interrupt                0                       # Number of write requests responded to by this memory
system.physmem.num_writes::switch_cpus0.dtb.walker            0                       # Number of write requests responded to by this memory
system.physmem.num_writes::switch_cpus0.itb.walker            0                       # Number of write requests responded to by this memory
system.physmem.num_writes::switch_cpus0.inst            0                       # Number of write requests responded to by this memory
system.physmem.num_writes::switch_cpus0.data            0                       # Number of write requests responded to by this memory
system.physmem.num_writes::switch_cpus1.dtb.walker            0                       # Number of write requests responded to by this memory
system.physmem.num_writes::switch_cpus1.itb.walker            0                       # Number of write requests responded to by this memory
system.physmem.num_writes::switch_cpus1.inst            0                       # Number of write requests responded to by this memory
system.physmem.num_writes::switch_cpus1.data            0                       # Number of write requests responded to by this memory
system.physmem.num_writes::switch_cpus2.dtb.walker            0                       # Number of write requests responded to by this memory
system.physmem.num_writes::switch_cpus2.itb.walker            0                       # Number of write requests responded to by this memory
system.physmem.num_writes::switch_cpus2.inst            0                       # Number of write requests responded to by this memory
system.physmem.num_writes::switch_cpus2.data            0                       # Number of write requests responded to by this memory
system.physmem.num_writes::cpu0.dtb.walker            0                       # Number of write requests responded to by this memory
system.physmem.num_writes::cpu0.itb.walker            0                       # Number of write requests responded to by this memory
system.physmem.num_writes::cpu0.inst                0                       # Number of write requests responded to by this memory
system.physmem.num_writes::cpu0.data                0                       # Number of write requests responded to by this memory
system.physmem.num_writes::cpu1.dtb.walker            0                       # Number of write requests responded to by this memory
system.physmem.num_writes::cpu1.itb.walker            0                       # Number of write requests responded to by this memory
system.physmem.num_writes::cpu1.inst                0                       # Number of write requests responded to by this memory
system.physmem.num_writes::cpu1.data                0                       # Number of write requests responded to by this memory
system.physmem.num_writes::cpu2.dtb.walker            0                       # Number of write requests responded to by this memory
system.physmem.num_writes::cpu2.itb.walker            0                       # Number of write requests responded to by this memory
system.physmem.num_writes::cpu2.inst                0                       # Number of write requests responded to by this memory
system.physmem.num_writes::cpu2.data                0                       # Number of write requests responded to by this memory
system.physmem.num_writes::total                10173                       # Number of write requests responded to by this memory
system.physmem.bw_read::switch_cpus0.inst        18087                       # Total read bandwidth from this memory (bytes/s)
system.physmem.bw_read::switch_cpus0.data      6928599                       # Total read bandwidth from this memory (bytes/s)
system.physmem.bw_read::switch_cpus1.inst        18087                       # Total read bandwidth from this memory (bytes/s)
system.physmem.bw_read::switch_cpus1.data     13456701                       # Total read bandwidth from this memory (bytes/s)
system.physmem.bw_read::switch_cpus2.inst        16795                       # Total read bandwidth from this memory (bytes/s)
system.physmem.bw_read::switch_cpus2.data     10394837                       # Total read bandwidth from this memory (bytes/s)
system.physmem.bw_read::total                30833106                       # Total read bandwidth from this memory (bytes/s)
system.physmem.bw_inst_read::switch_cpus0.inst        18087                       # Instruction read bandwidth from this memory (bytes/s)
system.physmem.bw_inst_read::switch_cpus1.inst        18087                       # Instruction read bandwidth from this memory (bytes/s)
system.physmem.bw_inst_read::switch_cpus2.inst        16795                       # Instruction read bandwidth from this memory (bytes/s)
system.physmem.bw_inst_read::total              52969                       # Instruction read bandwidth from this memory (bytes/s)
system.physmem.bw_write::writebacks          13142763                       # Write bandwidth from this memory (bytes/s)
system.physmem.bw_write::total               13142763                       # Write bandwidth from this memory (bytes/s)
system.physmem.bw_total::writebacks          13142763                       # Total bandwidth to/from this memory (bytes/s)
system.physmem.bw_total::switch_cpus0.inst        18087                       # Total bandwidth to/from this memory (bytes/s)
system.physmem.bw_total::switch_cpus0.data      6928599                       # Total bandwidth to/from this memory (bytes/s)
system.physmem.bw_total::switch_cpus1.inst        18087                       # Total bandwidth to/from this memory (bytes/s)
system.physmem.bw_total::switch_cpus1.data     13456701                       # Total bandwidth to/from this memory (bytes/s)
system.physmem.bw_total::switch_cpus2.inst        16795                       # Total bandwidth to/from this memory (bytes/s)
system.physmem.bw_total::switch_cpus2.data     10394837                       # Total bandwidth to/from this memory (bytes/s)
system.physmem.bw_total::total               43975870                       # Total bandwidth to/from this memory (bytes/s)
system.switch_cpus0.dtb.inst_hits                   0                       # ITB inst hits
system.switch_cpus0.dtb.inst_misses                 0                       # ITB inst misses
system.switch_cpus0.dtb.read_hits                   0                       # DTB read hits
system.switch_cpus0.dtb.read_misses                 0                       # DTB read misses
system.switch_cpus0.dtb.write_hits                  0                       # DTB write hits
system.switch_cpus0.dtb.write_misses                0                       # DTB write misses
system.switch_cpus0.dtb.flush_tlb                   0                       # Number of times complete TLB was flushed
system.switch_cpus0.dtb.flush_tlb_mva               0                       # Number of times TLB was flushed by MVA
system.switch_cpus0.dtb.flush_tlb_mva_asid            0                       # Number of times TLB was flushed by MVA & ASID
system.switch_cpus0.dtb.flush_tlb_asid              0                       # Number of times TLB was flushed by ASID
system.switch_cpus0.dtb.flush_entries               0                       # Number of entries that have been flushed from TLB
system.switch_cpus0.dtb.align_faults                0                       # Number of TLB faults due to alignment restrictions
system.switch_cpus0.dtb.prefetch_faults             0                       # Number of TLB faults due to prefetch
system.switch_cpus0.dtb.domain_faults               0                       # Number of TLB faults due to domain restrictions
system.switch_cpus0.dtb.perms_faults                0                       # Number of TLB faults due to permissions restrictions
system.switch_cpus0.dtb.read_accesses               0                       # DTB read accesses
system.switch_cpus0.dtb.write_accesses              0                       # DTB write accesses
system.switch_cpus0.dtb.inst_accesses               0                       # ITB inst accesses
system.switch_cpus0.dtb.hits                        0                       # DTB hits
system.switch_cpus0.dtb.misses                      0                       # DTB misses
system.switch_cpus0.dtb.accesses                    0                       # DTB accesses
system.switch_cpus0.itb.inst_hits                   0                       # ITB inst hits
system.switch_cpus0.itb.inst_misses                 0                       # ITB inst misses
system.switch_cpus0.itb.read_hits                   0                       # DTB read hits
system.switch_cpus0.itb.read_misses                 0                       # DTB read misses
system.switch_cpus0.itb.write_hits                  0                       # DTB write hits
system.switch_cpus0.itb.write_misses                0                       # DTB write misses
system.switch_cpus0.itb.flush_tlb                   0                       # Number of times complete TLB was flushed
system.switch_cpus0.itb.flush_tlb_mva               0                       # Number of times TLB was flushed by MVA
system.switch_cpus0.itb.flush_tlb_mva_asid            0                       # Number of times TLB was flushed by MVA & ASID
system.switch_cpus0.itb.flush_tlb_asid              0                       # Number of times TLB was flushed by ASID
system.switch_cpus0.itb.flush_entries               0                       # Number of entries that have been flushed from TLB
system.switch_cpus0.itb.align_faults                0                       # Number of TLB faults due to alignment restrictions
system.switch_cpus0.itb.prefetch_faults             0                       # Number of TLB faults due to prefetch
system.switch_cpus0.itb.domain_faults               0                       # Number of TLB faults due to domain restrictions
system.switch_cpus0.itb.perms_faults                0                       # Number of TLB faults due to permissions restrictions
system.switch_cpus0.itb.read_accesses               0                       # DTB read accesses
system.switch_cpus0.itb.write_accesses              0                       # DTB write accesses
system.switch_cpus0.itb.inst_accesses               0                       # ITB inst accesses
system.switch_cpus0.itb.hits                        0                       # DTB hits
system.switch_cpus0.itb.misses                      0                       # DTB misses
system.switch_cpus0.itb.accesses                    0                       # DTB accesses
system.cpu0.workload.num_syscalls                   0                       # Number of system calls
system.switch_cpus0.numCycles               237594439                       # number of cpu cycles simulated
system.switch_cpus0.numWorkItemsStarted             0                       # number of work items this cpu started
system.switch_cpus0.numWorkItemsCompleted            0                       # number of work items this cpu completed
system.switch_cpus0.BPredUnit.lookups        21494847                       # Number of BP lookups
system.switch_cpus0.BPredUnit.condPredicted     17425525                       # Number of conditional branches predicted
system.switch_cpus0.BPredUnit.condIncorrect      1975409                       # Number of conditional branches incorrect
system.switch_cpus0.BPredUnit.BTBLookups      8762853                       # Number of BTB lookups
system.switch_cpus0.BPredUnit.BTBHits         8140918                       # Number of BTB hits
system.switch_cpus0.BPredUnit.BTBCorrect            0                       # Number of correct BTB predictions (this stat may not work properly.
system.switch_cpus0.BPredUnit.usedRAS         2333292                       # Number of times the RAS was used to get a target.
system.switch_cpus0.BPredUnit.RASInCorrect        93577                       # Number of incorrect RAS predictions.
system.switch_cpus0.fetch.icacheStallCycles    186261972                       # Number of cycles fetch is stalled on an Icache miss
system.switch_cpus0.fetch.Insts             119847681                       # Number of instructions fetch has processed
system.switch_cpus0.fetch.Branches           21494847                       # Number of branches that fetch encountered
system.switch_cpus0.fetch.predictedBranches     10474210                       # Number of branches that fetch has predicted taken
system.switch_cpus0.fetch.Cycles             26378914                       # Number of cycles fetch has run and was not squashing or blocked
system.switch_cpus0.fetch.SquashCycles        6021101                       # Number of cycles fetch has spent squashing
system.switch_cpus0.fetch.BlockedCycles       3518329                       # Number of cycles fetch has spent blocked
system.switch_cpus0.fetch.MiscStallCycles            1                       # Number of cycles fetch has spent waiting on interrupts, or bad addresses, or out of MSHRs
system.switch_cpus0.fetch.PendingTrapStallCycles           36                       # Number of stall cycles due to pending traps
system.switch_cpus0.fetch.CacheLines         11506053                       # Number of cache lines fetched
system.switch_cpus0.fetch.IcacheSquashes      1973873                       # Number of outstanding Icache misses that were squashed
system.switch_cpus0.fetch.rateDist::samples    220179407                       # Number of instructions fetched each cycle (Total)
system.switch_cpus0.fetch.rateDist::mean     0.668562                       # Number of instructions fetched each cycle (Total)
system.switch_cpus0.fetch.rateDist::stdev     2.029134                       # Number of instructions fetched each cycle (Total)
system.switch_cpus0.fetch.rateDist::underflows            0      0.00%      0.00% # Number of instructions fetched each cycle (Total)
system.switch_cpus0.fetch.rateDist::0       193800493     88.02%     88.02% # Number of instructions fetched each cycle (Total)
system.switch_cpus0.fetch.rateDist::1         1837225      0.83%     88.85% # Number of instructions fetched each cycle (Total)
system.switch_cpus0.fetch.rateDist::2         3337030      1.52%     90.37% # Number of instructions fetched each cycle (Total)
system.switch_cpus0.fetch.rateDist::3         3088231      1.40%     91.77% # Number of instructions fetched each cycle (Total)
system.switch_cpus0.fetch.rateDist::4         1963569      0.89%     92.66% # Number of instructions fetched each cycle (Total)
system.switch_cpus0.fetch.rateDist::5         1615847      0.73%     93.40% # Number of instructions fetched each cycle (Total)
system.switch_cpus0.fetch.rateDist::6          923456      0.42%     93.82% # Number of instructions fetched each cycle (Total)
system.switch_cpus0.fetch.rateDist::7          955140      0.43%     94.25% # Number of instructions fetched each cycle (Total)
system.switch_cpus0.fetch.rateDist::8        12658416      5.75%    100.00% # Number of instructions fetched each cycle (Total)
system.switch_cpus0.fetch.rateDist::overflows            0      0.00%    100.00% # Number of instructions fetched each cycle (Total)
system.switch_cpus0.fetch.rateDist::min_value            0                       # Number of instructions fetched each cycle (Total)
system.switch_cpus0.fetch.rateDist::max_value            8                       # Number of instructions fetched each cycle (Total)
system.switch_cpus0.fetch.rateDist::total    220179407                       # Number of instructions fetched each cycle (Total)
system.switch_cpus0.fetch.branchRate         0.090469                       # Number of branch fetches per cycle
system.switch_cpus0.fetch.rate               0.504421                       # Number of inst fetches per cycle
system.switch_cpus0.decode.IdleCycles       184371166                       # Number of cycles decode is idle
system.switch_cpus0.decode.BlockedCycles      5426456                       # Number of cycles decode is blocked
system.switch_cpus0.decode.RunCycles         26317113                       # Number of cycles decode is running
system.switch_cpus0.decode.UnblockCycles        44742                       # Number of cycles decode is unblocking
system.switch_cpus0.decode.SquashCycles       4019929                       # Number of cycles decode is squashing
system.switch_cpus0.decode.BranchResolved      3732471                       # Number of times decode resolved a branch
system.switch_cpus0.decode.BranchMispred          226                       # Number of times decode detected a branch misprediction
system.switch_cpus0.decode.DecodedInsts     147105183                       # Number of instructions handled by decode
system.switch_cpus0.decode.SquashedInsts         1300                       # Number of squashed instructions handled by decode
system.switch_cpus0.rename.SquashCycles       4019929                       # Number of cycles rename is squashing
system.switch_cpus0.rename.IdleCycles       184842581                       # Number of cycles rename is idle
system.switch_cpus0.rename.BlockCycles        1182192                       # Number of cycles rename is blocking
system.switch_cpus0.rename.serializeStallCycles      3167592                       # count of cycles rename stalled for serializing inst
system.switch_cpus0.rename.RunCycles         25861181                       # Number of cycles rename is running
system.switch_cpus0.rename.UnblockCycles      1105931                       # Number of cycles rename is unblocking
system.switch_cpus0.rename.RenamedInsts     146981669                       # Number of instructions processed by rename
system.switch_cpus0.rename.IQFullEvents        177953                       # Number of times rename has blocked due to IQ full
system.switch_cpus0.rename.LSQFullEvents       479199                       # Number of times rename has blocked due to LSQ full
system.switch_cpus0.rename.RenamedOperands    208484219                       # Number of destination operands rename has renamed
system.switch_cpus0.rename.RenameLookups    684668793                       # Number of register rename lookups that rename has made
system.switch_cpus0.rename.int_rename_lookups    684668793                       # Number of integer rename lookups
system.switch_cpus0.rename.CommittedMaps    171704513                       # Number of HB maps that are committed
system.switch_cpus0.rename.UndoneMaps        36779697                       # Number of HB maps that are undone due to squashing
system.switch_cpus0.rename.serializingInsts        33814                       # count of serializing insts renamed
system.switch_cpus0.rename.tempSerializingInsts        16907                       # count of temporary serializing insts renamed
system.switch_cpus0.rename.skidInsts          4099878                       # count of insts added to the skid buffer
system.switch_cpus0.memDep0.insertedLoads     13861090                       # Number of loads inserted to the mem dependence unit.
system.switch_cpus0.memDep0.insertedStores      7183822                       # Number of stores inserted to the mem dependence unit.
system.switch_cpus0.memDep0.conflictingLoads        81675                       # Number of conflicting loads.
system.switch_cpus0.memDep0.conflictingStores      1603829                       # Number of conflicting stores.
system.switch_cpus0.iq.iqInstsAdded         146022856                       # Number of instructions added to the IQ (excludes non-spec)
system.switch_cpus0.iq.iqNonSpecInstsAdded        33814                       # Number of non-speculative instructions added to the IQ
system.switch_cpus0.iq.iqInstsIssued        137937598                       # Number of instructions issued
system.switch_cpus0.iq.iqSquashedInstsIssued       116622                       # Number of squashed instructions issued
system.switch_cpus0.iq.iqSquashedInstsExamined     21963709                       # Number of squashed instructions iterated over during squash; mainly for profiling
system.switch_cpus0.iq.iqSquashedOperandsExamined     46135840                       # Number of squashed operands that are examined and possibly removed from graph
system.switch_cpus0.iq.issued_per_cycle::samples    220179407                       # Number of insts issued each cycle
system.switch_cpus0.iq.issued_per_cycle::mean     0.626478                       # Number of insts issued each cycle
system.switch_cpus0.iq.issued_per_cycle::stdev     1.299407                       # Number of insts issued each cycle
system.switch_cpus0.iq.issued_per_cycle::underflows            0      0.00%      0.00% # Number of insts issued each cycle
system.switch_cpus0.iq.issued_per_cycle::0    160696260     72.98%     72.98% # Number of insts issued each cycle
system.switch_cpus0.iq.issued_per_cycle::1     25171057     11.43%     84.42% # Number of insts issued each cycle
system.switch_cpus0.iq.issued_per_cycle::2     13552780      6.16%     90.57% # Number of insts issued each cycle
system.switch_cpus0.iq.issued_per_cycle::3      6868755      3.12%     93.69% # Number of insts issued each cycle
system.switch_cpus0.iq.issued_per_cycle::4      8182561      3.72%     97.41% # Number of insts issued each cycle
system.switch_cpus0.iq.issued_per_cycle::5      2645655      1.20%     98.61% # Number of insts issued each cycle
system.switch_cpus0.iq.issued_per_cycle::6      2481830      1.13%     99.74% # Number of insts issued each cycle
system.switch_cpus0.iq.issued_per_cycle::7       438855      0.20%     99.94% # Number of insts issued each cycle
system.switch_cpus0.iq.issued_per_cycle::8       141654      0.06%    100.00% # Number of insts issued each cycle
system.switch_cpus0.iq.issued_per_cycle::overflows            0      0.00%    100.00% # Number of insts issued each cycle
system.switch_cpus0.iq.issued_per_cycle::min_value            0                       # Number of insts issued each cycle
system.switch_cpus0.iq.issued_per_cycle::max_value            8                       # Number of insts issued each cycle
system.switch_cpus0.iq.issued_per_cycle::total    220179407                       # Number of insts issued each cycle
system.switch_cpus0.iq.fu_full::No_OpClass            0      0.00%      0.00% # attempts to use FU when none available
system.switch_cpus0.iq.fu_full::IntAlu         416005     59.68%     59.68% # attempts to use FU when none available
system.switch_cpus0.iq.fu_full::IntMult             0      0.00%     59.68% # attempts to use FU when none available
system.switch_cpus0.iq.fu_full::IntDiv              0      0.00%     59.68% # attempts to use FU when none available
system.switch_cpus0.iq.fu_full::FloatAdd            0      0.00%     59.68% # attempts to use FU when none available
system.switch_cpus0.iq.fu_full::FloatCmp            0      0.00%     59.68% # attempts to use FU when none available
system.switch_cpus0.iq.fu_full::FloatCvt            0      0.00%     59.68% # attempts to use FU when none available
system.switch_cpus0.iq.fu_full::FloatMult            0      0.00%     59.68% # attempts to use FU when none available
system.switch_cpus0.iq.fu_full::FloatDiv            0      0.00%     59.68% # attempts to use FU when none available
system.switch_cpus0.iq.fu_full::FloatSqrt            0      0.00%     59.68% # attempts to use FU when none available
system.switch_cpus0.iq.fu_full::SimdAdd             0      0.00%     59.68% # attempts to use FU when none available
system.switch_cpus0.iq.fu_full::SimdAddAcc            0      0.00%     59.68% # attempts to use FU when none available
system.switch_cpus0.iq.fu_full::SimdAlu             0      0.00%     59.68% # attempts to use FU when none available
system.switch_cpus0.iq.fu_full::SimdCmp             0      0.00%     59.68% # attempts to use FU when none available
system.switch_cpus0.iq.fu_full::SimdCvt             0      0.00%     59.68% # attempts to use FU when none available
system.switch_cpus0.iq.fu_full::SimdMisc            0      0.00%     59.68% # attempts to use FU when none available
system.switch_cpus0.iq.fu_full::SimdMult            0      0.00%     59.68% # attempts to use FU when none available
system.switch_cpus0.iq.fu_full::SimdMultAcc            0      0.00%     59.68% # attempts to use FU when none available
system.switch_cpus0.iq.fu_full::SimdShift            0      0.00%     59.68% # attempts to use FU when none available
system.switch_cpus0.iq.fu_full::SimdShiftAcc            0      0.00%     59.68% # attempts to use FU when none available
system.switch_cpus0.iq.fu_full::SimdSqrt            0      0.00%     59.68% # attempts to use FU when none available
system.switch_cpus0.iq.fu_full::SimdFloatAdd            0      0.00%     59.68% # attempts to use FU when none available
system.switch_cpus0.iq.fu_full::SimdFloatAlu            0      0.00%     59.68% # attempts to use FU when none available
system.switch_cpus0.iq.fu_full::SimdFloatCmp            0      0.00%     59.68% # attempts to use FU when none available
system.switch_cpus0.iq.fu_full::SimdFloatCvt            0      0.00%     59.68% # attempts to use FU when none available
system.switch_cpus0.iq.fu_full::SimdFloatDiv            0      0.00%     59.68% # attempts to use FU when none available
system.switch_cpus0.iq.fu_full::SimdFloatMisc            0      0.00%     59.68% # attempts to use FU when none available
system.switch_cpus0.iq.fu_full::SimdFloatMult            0      0.00%     59.68% # attempts to use FU when none available
system.switch_cpus0.iq.fu_full::SimdFloatMultAcc            0      0.00%     59.68% # attempts to use FU when none available
system.switch_cpus0.iq.fu_full::SimdFloatSqrt            0      0.00%     59.68% # attempts to use FU when none available
system.switch_cpus0.iq.fu_full::MemRead        143342     20.56%     80.24% # attempts to use FU when none available
system.switch_cpus0.iq.fu_full::MemWrite       137737     19.76%    100.00% # attempts to use FU when none available
system.switch_cpus0.iq.fu_full::IprAccess            0      0.00%    100.00% # attempts to use FU when none available
system.switch_cpus0.iq.fu_full::InstPrefetch            0      0.00%    100.00% # attempts to use FU when none available
system.switch_cpus0.iq.FU_type_0::No_OpClass            0      0.00%      0.00% # Type of FU issued
system.switch_cpus0.iq.FU_type_0::IntAlu    115992900     84.09%     84.09% # Type of FU issued
system.switch_cpus0.iq.FU_type_0::IntMult      1978416      1.43%     85.53% # Type of FU issued
system.switch_cpus0.iq.FU_type_0::IntDiv            0      0.00%     85.53% # Type of FU issued
system.switch_cpus0.iq.FU_type_0::FloatAdd            0      0.00%     85.53% # Type of FU issued
system.switch_cpus0.iq.FU_type_0::FloatCmp            0      0.00%     85.53% # Type of FU issued
system.switch_cpus0.iq.FU_type_0::FloatCvt            0      0.00%     85.53% # Type of FU issued
system.switch_cpus0.iq.FU_type_0::FloatMult            0      0.00%     85.53% # Type of FU issued
system.switch_cpus0.iq.FU_type_0::FloatDiv            0      0.00%     85.53% # Type of FU issued
system.switch_cpus0.iq.FU_type_0::FloatSqrt            0      0.00%     85.53% # Type of FU issued
system.switch_cpus0.iq.FU_type_0::SimdAdd            0      0.00%     85.53% # Type of FU issued
system.switch_cpus0.iq.FU_type_0::SimdAddAcc            0      0.00%     85.53% # Type of FU issued
system.switch_cpus0.iq.FU_type_0::SimdAlu            0      0.00%     85.53% # Type of FU issued
system.switch_cpus0.iq.FU_type_0::SimdCmp            0      0.00%     85.53% # Type of FU issued
system.switch_cpus0.iq.FU_type_0::SimdCvt            0      0.00%     85.53% # Type of FU issued
system.switch_cpus0.iq.FU_type_0::SimdMisc            0      0.00%     85.53% # Type of FU issued
system.switch_cpus0.iq.FU_type_0::SimdMult            0      0.00%     85.53% # Type of FU issued
system.switch_cpus0.iq.FU_type_0::SimdMultAcc            0      0.00%     85.53% # Type of FU issued
system.switch_cpus0.iq.FU_type_0::SimdShift            0      0.00%     85.53% # Type of FU issued
system.switch_cpus0.iq.FU_type_0::SimdShiftAcc            0      0.00%     85.53% # Type of FU issued
system.switch_cpus0.iq.FU_type_0::SimdSqrt            0      0.00%     85.53% # Type of FU issued
system.switch_cpus0.iq.FU_type_0::SimdFloatAdd            0      0.00%     85.53% # Type of FU issued
system.switch_cpus0.iq.FU_type_0::SimdFloatAlu            0      0.00%     85.53% # Type of FU issued
system.switch_cpus0.iq.FU_type_0::SimdFloatCmp            0      0.00%     85.53% # Type of FU issued
system.switch_cpus0.iq.FU_type_0::SimdFloatCvt            0      0.00%     85.53% # Type of FU issued
system.switch_cpus0.iq.FU_type_0::SimdFloatDiv            0      0.00%     85.53% # Type of FU issued
system.switch_cpus0.iq.FU_type_0::SimdFloatMisc        16907      0.01%     85.54% # Type of FU issued
system.switch_cpus0.iq.FU_type_0::SimdFloatMult            0      0.00%     85.54% # Type of FU issued
system.switch_cpus0.iq.FU_type_0::SimdFloatMultAcc            0      0.00%     85.54% # Type of FU issued
system.switch_cpus0.iq.FU_type_0::SimdFloatSqrt            0      0.00%     85.54% # Type of FU issued
system.switch_cpus0.iq.FU_type_0::MemRead     12788440      9.27%     94.81% # Type of FU issued
system.switch_cpus0.iq.FU_type_0::MemWrite      7160935      5.19%    100.00% # Type of FU issued
system.switch_cpus0.iq.FU_type_0::IprAccess            0      0.00%    100.00% # Type of FU issued
system.switch_cpus0.iq.FU_type_0::InstPrefetch            0      0.00%    100.00% # Type of FU issued
system.switch_cpus0.iq.FU_type_0::total     137937598                       # Type of FU issued
system.switch_cpus0.iq.rate                  0.580559                       # Inst issue rate
system.switch_cpus0.iq.fu_busy_cnt             697084                       # FU busy when requested
system.switch_cpus0.iq.fu_busy_rate          0.005054                       # FU busy rate (busy events/executed inst)
system.switch_cpus0.iq.int_inst_queue_reads    496868308                       # Number of integer instruction queue reads
system.switch_cpus0.iq.int_inst_queue_writes    168020585                       # Number of integer instruction queue writes
system.switch_cpus0.iq.int_inst_queue_wakeup_accesses    134959645                       # Number of integer instruction queue wakeup accesses
system.switch_cpus0.iq.fp_inst_queue_reads            0                       # Number of floating instruction queue reads
system.switch_cpus0.iq.fp_inst_queue_writes            0                       # Number of floating instruction queue writes
system.switch_cpus0.iq.fp_inst_queue_wakeup_accesses            0                       # Number of floating instruction queue wakeup accesses
system.switch_cpus0.iq.int_alu_accesses     138634682                       # Number of integer alu accesses
system.switch_cpus0.iq.fp_alu_accesses              0                       # Number of floating point alu accesses
system.switch_cpus0.iew.lsq.thread0.forwLoads       268278                       # Number of loads that had data forwarded from stores
system.switch_cpus0.iew.lsq.thread0.invAddrLoads            0                       # Number of loads ignored due to an invalid address
system.switch_cpus0.iew.lsq.thread0.squashedLoads      2667669                       # Number of loads squashed
system.switch_cpus0.iew.lsq.thread0.ignoredResponses            5                       # Number of memory responses ignored because the instruction is squashed
system.switch_cpus0.iew.lsq.thread0.memOrderViolation          206                       # Number of memory ordering violations
system.switch_cpus0.iew.lsq.thread0.squashedStores        92794                       # Number of stores squashed
system.switch_cpus0.iew.lsq.thread0.invAddrSwpfs            0                       # Number of software prefetches ignored due to an invalid address
system.switch_cpus0.iew.lsq.thread0.blockedLoads            0                       # Number of blocked loads due to partial load-store forwarding
system.switch_cpus0.iew.lsq.thread0.rescheduledLoads            0                       # Number of loads that were rescheduled
system.switch_cpus0.iew.lsq.thread0.cacheBlocked            0                       # Number of times an access to memory failed due to the cache being blocked
system.switch_cpus0.iew.iewIdleCycles               0                       # Number of cycles IEW is idle
system.switch_cpus0.iew.iewSquashCycles       4019929                       # Number of cycles IEW is squashing
system.switch_cpus0.iew.iewBlockCycles         801668                       # Number of cycles IEW is blocking
system.switch_cpus0.iew.iewUnblockCycles       113805                       # Number of cycles IEW is unblocking
system.switch_cpus0.iew.iewDispatchedInsts    146056673                       # Number of instructions dispatched to IQ
system.switch_cpus0.iew.iewDispSquashedInsts         8606                       # Number of squashed instructions skipped by dispatch
system.switch_cpus0.iew.iewDispLoadInsts     13861090                       # Number of dispatched load instructions
system.switch_cpus0.iew.iewDispStoreInsts      7183822                       # Number of dispatched store instructions
system.switch_cpus0.iew.iewDispNonSpecInsts        16907                       # Number of dispatched non-speculative instructions
system.switch_cpus0.iew.iewIQFullEvents         99314                       # Number of times the IQ has become full, causing a stall
system.switch_cpus0.iew.iewLSQFullEvents            0                       # Number of times the LSQ has become full, causing a stall
system.switch_cpus0.iew.memOrderViolationEvents          206                       # Number of memory order violations
system.switch_cpus0.iew.predictedTakenIncorrect      1053549                       # Number of branches that were predicted taken incorrectly
system.switch_cpus0.iew.predictedNotTakenIncorrect      1100372                       # Number of branches that were predicted not taken incorrectly
system.switch_cpus0.iew.branchMispredicts      2153921                       # Number of branch mispredicts detected at execute
system.switch_cpus0.iew.iewExecutedInsts    135951582                       # Number of executed instructions
system.switch_cpus0.iew.iewExecLoadInsts     12337638                       # Number of load instructions executed
system.switch_cpus0.iew.iewExecSquashedInsts      1986015                       # Number of squashed instructions skipped in execute
system.switch_cpus0.iew.exec_swp                    0                       # number of swp insts executed
system.switch_cpus0.iew.exec_nop                    3                       # number of nop insts executed
system.switch_cpus0.iew.exec_refs            19498426                       # number of memory reference insts executed
system.switch_cpus0.iew.exec_branches        19193249                       # Number of branches executed
system.switch_cpus0.iew.exec_stores           7160788                       # Number of stores executed
system.switch_cpus0.iew.exec_rate            0.572200                       # Inst execution rate
system.switch_cpus0.iew.wb_sent             134959687                       # cumulative count of insts sent to commit
system.switch_cpus0.iew.wb_count            134959645                       # cumulative count of insts written-back
system.switch_cpus0.iew.wb_producers         77873324                       # num instructions producing a value
system.switch_cpus0.iew.wb_consumers        216902122                       # num instructions consuming a value
system.switch_cpus0.iew.wb_penalized                0                       # number of instrctions required to write to 'other' IQ
system.switch_cpus0.iew.wb_rate              0.568025                       # insts written-back per cycle
system.switch_cpus0.iew.wb_fanout            0.359025                       # average fanout of values written-back
system.switch_cpus0.iew.wb_penalized_rate            0                       # fraction of instructions written-back that wrote to 'other' IQ
system.switch_cpus0.commit.commitCommittedInsts    100000001                       # The number of committed instructions
system.switch_cpus0.commit.commitCommittedOps    123129333                       # The number of committed instructions
system.switch_cpus0.commit.commitSquashedInsts     22927714                       # The number of squashed insts skipped by commit
system.switch_cpus0.commit.commitNonSpecStalls        33814                       # The number of times commit has been forced to stall to communicate backwards
system.switch_cpus0.commit.branchMispredicts      2000543                       # The number of times a branch was mispredicted
system.switch_cpus0.commit.committed_per_cycle::samples    216159478                       # Number of insts commited each cycle
system.switch_cpus0.commit.committed_per_cycle::mean     0.569623                       # Number of insts commited each cycle
system.switch_cpus0.commit.committed_per_cycle::stdev     1.369277                       # Number of insts commited each cycle
system.switch_cpus0.commit.committed_per_cycle::underflows            0      0.00%      0.00% # Number of insts commited each cycle
system.switch_cpus0.commit.committed_per_cycle::0    164304173     76.01%     76.01% # Number of insts commited each cycle
system.switch_cpus0.commit.committed_per_cycle::1     23871893     11.04%     87.05% # Number of insts commited each cycle
system.switch_cpus0.commit.committed_per_cycle::2     12381054      5.73%     92.78% # Number of insts commited each cycle
system.switch_cpus0.commit.committed_per_cycle::3      3981342      1.84%     94.62% # Number of insts commited each cycle
system.switch_cpus0.commit.committed_per_cycle::4      5464275      2.53%     97.15% # Number of insts commited each cycle
system.switch_cpus0.commit.committed_per_cycle::5      1835072      0.85%     98.00% # Number of insts commited each cycle
system.switch_cpus0.commit.committed_per_cycle::6      1058242      0.49%     98.49% # Number of insts commited each cycle
system.switch_cpus0.commit.committed_per_cycle::7       938022      0.43%     98.92% # Number of insts commited each cycle
system.switch_cpus0.commit.committed_per_cycle::8      2325405      1.08%    100.00% # Number of insts commited each cycle
system.switch_cpus0.commit.committed_per_cycle::overflows            0      0.00%    100.00% # Number of insts commited each cycle
system.switch_cpus0.commit.committed_per_cycle::min_value            0                       # Number of insts commited each cycle
system.switch_cpus0.commit.committed_per_cycle::max_value            8                       # Number of insts commited each cycle
system.switch_cpus0.commit.committed_per_cycle::total    216159478                       # Number of insts commited each cycle
system.switch_cpus0.commit.committedInsts    100000001                       # Number of instructions committed
system.switch_cpus0.commit.committedOps     123129333                       # Number of ops (including micro ops) committed
system.switch_cpus0.commit.swp_count                0                       # Number of s/w prefetches committed
system.switch_cpus0.commit.refs              18284449                       # Number of memory references committed
system.switch_cpus0.commit.loads             11193421                       # Number of loads committed
system.switch_cpus0.commit.membars              16907                       # Number of memory barriers committed
system.switch_cpus0.commit.branches          17772297                       # Number of branches committed
system.switch_cpus0.commit.fp_insts                 0                       # Number of committed floating point instructions.
system.switch_cpus0.commit.int_insts        110930175                       # Number of committed integer instructions.
system.switch_cpus0.commit.function_calls      2539549                       # Number of function calls committed.
system.switch_cpus0.commit.bw_lim_events      2325405                       # number cycles where commit BW limit reached
system.switch_cpus0.commit.bw_limited               0                       # number of insts not committed due to BW limits
system.switch_cpus0.rob.rob_reads           359891120                       # The number of ROB reads
system.switch_cpus0.rob.rob_writes          296134065                       # The number of ROB writes
system.switch_cpus0.timesIdled                2877703                       # Number of times that the entire CPU went into an idle state and unscheduled itself
system.switch_cpus0.idleCycles               17415032                       # Total number of cycles that the CPU has spent unscheduled due to idling
system.switch_cpus0.committedInsts          100000001                       # Number of Instructions Simulated
system.switch_cpus0.committedOps            123129333                       # Number of Ops (including micro ops) Simulated
system.switch_cpus0.committedInsts_total    100000001                       # Number of Instructions Simulated
system.switch_cpus0.cpi                      2.375944                       # CPI: Cycles Per Instruction
system.switch_cpus0.cpi_total                2.375944                       # CPI: Total CPI of All Threads
system.switch_cpus0.ipc                      0.420885                       # IPC: Instructions Per Cycle
system.switch_cpus0.ipc_total                0.420885                       # IPC: Total IPC of All Threads
system.switch_cpus0.int_regfile_reads       611481459                       # number of integer regfile reads
system.switch_cpus0.int_regfile_writes      188862523                       # number of integer regfile writes
system.switch_cpus0.misc_regfile_reads      135771916                       # number of misc regfile reads
system.switch_cpus0.misc_regfile_writes         33814                       # number of misc regfile writes
system.switch_cpus1.dtb.inst_hits                   0                       # ITB inst hits
system.switch_cpus1.dtb.inst_misses                 0                       # ITB inst misses
system.switch_cpus1.dtb.read_hits                   0                       # DTB read hits
system.switch_cpus1.dtb.read_misses                 0                       # DTB read misses
system.switch_cpus1.dtb.write_hits                  0                       # DTB write hits
system.switch_cpus1.dtb.write_misses                0                       # DTB write misses
system.switch_cpus1.dtb.flush_tlb                   0                       # Number of times complete TLB was flushed
system.switch_cpus1.dtb.flush_tlb_mva               0                       # Number of times TLB was flushed by MVA
system.switch_cpus1.dtb.flush_tlb_mva_asid            0                       # Number of times TLB was flushed by MVA & ASID
system.switch_cpus1.dtb.flush_tlb_asid              0                       # Number of times TLB was flushed by ASID
system.switch_cpus1.dtb.flush_entries               0                       # Number of entries that have been flushed from TLB
system.switch_cpus1.dtb.align_faults                0                       # Number of TLB faults due to alignment restrictions
system.switch_cpus1.dtb.prefetch_faults             0                       # Number of TLB faults due to prefetch
system.switch_cpus1.dtb.domain_faults               0                       # Number of TLB faults due to domain restrictions
system.switch_cpus1.dtb.perms_faults                0                       # Number of TLB faults due to permissions restrictions
system.switch_cpus1.dtb.read_accesses               0                       # DTB read accesses
system.switch_cpus1.dtb.write_accesses              0                       # DTB write accesses
system.switch_cpus1.dtb.inst_accesses               0                       # ITB inst accesses
system.switch_cpus1.dtb.hits                        0                       # DTB hits
system.switch_cpus1.dtb.misses                      0                       # DTB misses
system.switch_cpus1.dtb.accesses                    0                       # DTB accesses
system.switch_cpus1.itb.inst_hits                   0                       # ITB inst hits
system.switch_cpus1.itb.inst_misses                 0                       # ITB inst misses
system.switch_cpus1.itb.read_hits                   0                       # DTB read hits
system.switch_cpus1.itb.read_misses                 0                       # DTB read misses
system.switch_cpus1.itb.write_hits                  0                       # DTB write hits
system.switch_cpus1.itb.write_misses                0                       # DTB write misses
system.switch_cpus1.itb.flush_tlb                   0                       # Number of times complete TLB was flushed
system.switch_cpus1.itb.flush_tlb_mva               0                       # Number of times TLB was flushed by MVA
system.switch_cpus1.itb.flush_tlb_mva_asid            0                       # Number of times TLB was flushed by MVA & ASID
system.switch_cpus1.itb.flush_tlb_asid              0                       # Number of times TLB was flushed by ASID
system.switch_cpus1.itb.flush_entries               0                       # Number of entries that have been flushed from TLB
system.switch_cpus1.itb.align_faults                0                       # Number of TLB faults due to alignment restrictions
system.switch_cpus1.itb.prefetch_faults             0                       # Number of TLB faults due to prefetch
system.switch_cpus1.itb.domain_faults               0                       # Number of TLB faults due to domain restrictions
system.switch_cpus1.itb.perms_faults                0                       # Number of TLB faults due to permissions restrictions
system.switch_cpus1.itb.read_accesses               0                       # DTB read accesses
system.switch_cpus1.itb.write_accesses              0                       # DTB write accesses
system.switch_cpus1.itb.inst_accesses               0                       # ITB inst accesses
system.switch_cpus1.itb.hits                        0                       # DTB hits
system.switch_cpus1.itb.misses                      0                       # DTB misses
system.switch_cpus1.itb.accesses                    0                       # DTB accesses
system.cpu1.workload.num_syscalls                   0                       # Number of system calls
system.switch_cpus1.numCycles               237594439                       # number of cpu cycles simulated
system.switch_cpus1.numWorkItemsStarted             0                       # number of work items this cpu started
system.switch_cpus1.numWorkItemsCompleted            0                       # number of work items this cpu completed
system.switch_cpus1.BPredUnit.lookups        17921865                       # Number of BP lookups
system.switch_cpus1.BPredUnit.condPredicted     15907532                       # Number of conditional branches predicted
system.switch_cpus1.BPredUnit.condIncorrect      1545895                       # Number of conditional branches incorrect
system.switch_cpus1.BPredUnit.BTBLookups      9386591                       # Number of BTB lookups
system.switch_cpus1.BPredUnit.BTBHits         9158060                       # Number of BTB hits
system.switch_cpus1.BPredUnit.BTBCorrect            0                       # Number of correct BTB predictions (this stat may not work properly.
system.switch_cpus1.BPredUnit.usedRAS         1142501                       # Number of times the RAS was used to get a target.
system.switch_cpus1.BPredUnit.RASInCorrect        44830                       # Number of incorrect RAS predictions.
system.switch_cpus1.fetch.icacheStallCycles    192972540                       # Number of cycles fetch is stalled on an Icache miss
system.switch_cpus1.fetch.Insts             101445196                       # Number of instructions fetch has processed
system.switch_cpus1.fetch.Branches           17921865                       # Number of branches that fetch encountered
system.switch_cpus1.fetch.predictedBranches     10300561                       # Number of branches that fetch has predicted taken
system.switch_cpus1.fetch.Cycles             20521507                       # Number of cycles fetch has run and was not squashing or blocked
system.switch_cpus1.fetch.SquashCycles        4725747                       # Number of cycles fetch has spent squashing
system.switch_cpus1.fetch.BlockedCycles       1847292                       # Number of cycles fetch has spent blocked
system.switch_cpus1.fetch.PendingTrapStallCycles            6                       # Number of stall cycles due to pending traps
system.switch_cpus1.fetch.CacheLines         11804448                       # Number of cache lines fetched
system.switch_cpus1.fetch.IcacheSquashes      1540614                       # Number of outstanding Icache misses that were squashed
system.switch_cpus1.fetch.rateDist::samples    218513095                       # Number of instructions fetched each cycle (Total)
system.switch_cpus1.fetch.rateDist::mean     0.523355                       # Number of instructions fetched each cycle (Total)
system.switch_cpus1.fetch.rateDist::stdev     1.774125                       # Number of instructions fetched each cycle (Total)
system.switch_cpus1.fetch.rateDist::underflows            0      0.00%      0.00% # Number of instructions fetched each cycle (Total)
system.switch_cpus1.fetch.rateDist::0       197991588     90.61%     90.61% # Number of instructions fetched each cycle (Total)
system.switch_cpus1.fetch.rateDist::1          932980      0.43%     91.04% # Number of instructions fetched each cycle (Total)
system.switch_cpus1.fetch.rateDist::2         1734785      0.79%     91.83% # Number of instructions fetched each cycle (Total)
system.switch_cpus1.fetch.rateDist::3         1506317      0.69%     92.52% # Number of instructions fetched each cycle (Total)
system.switch_cpus1.fetch.rateDist::4         3030324      1.39%     93.91% # Number of instructions fetched each cycle (Total)
system.switch_cpus1.fetch.rateDist::5         3658145      1.67%     95.58% # Number of instructions fetched each cycle (Total)
system.switch_cpus1.fetch.rateDist::6          881331      0.40%     95.98% # Number of instructions fetched each cycle (Total)
system.switch_cpus1.fetch.rateDist::7          482581      0.22%     96.20% # Number of instructions fetched each cycle (Total)
system.switch_cpus1.fetch.rateDist::8         8295044      3.80%    100.00% # Number of instructions fetched each cycle (Total)
system.switch_cpus1.fetch.rateDist::overflows            0      0.00%    100.00% # Number of instructions fetched each cycle (Total)
system.switch_cpus1.fetch.rateDist::min_value            0                       # Number of instructions fetched each cycle (Total)
system.switch_cpus1.fetch.rateDist::max_value            8                       # Number of instructions fetched each cycle (Total)
system.switch_cpus1.fetch.rateDist::total    218513095                       # Number of instructions fetched each cycle (Total)
system.switch_cpus1.fetch.branchRate         0.075430                       # Number of branch fetches per cycle
system.switch_cpus1.fetch.rate               0.426968                       # Number of inst fetches per cycle
system.switch_cpus1.decode.IdleCycles       191579596                       # Number of cycles decode is idle
system.switch_cpus1.decode.BlockedCycles      3254968                       # Number of cycles decode is blocked
system.switch_cpus1.decode.RunCycles         20489495                       # Number of cycles decode is running
system.switch_cpus1.decode.UnblockCycles        21442                       # Number of cycles decode is unblocking
system.switch_cpus1.decode.SquashCycles       3167592                       # Number of cycles decode is squashing
system.switch_cpus1.decode.BranchResolved      1761495                       # Number of times decode resolved a branch
system.switch_cpus1.decode.BranchMispred         4158                       # Number of times decode detected a branch misprediction
system.switch_cpus1.decode.DecodedInsts     114293897                       # Number of instructions handled by decode
system.switch_cpus1.decode.SquashedInsts         1324                       # Number of squashed instructions handled by decode
system.switch_cpus1.rename.SquashCycles       3167592                       # Number of cycles rename is squashing
system.switch_cpus1.rename.IdleCycles       191810038                       # Number of cycles rename is idle
system.switch_cpus1.rename.BlockCycles        1497976                       # Number of cycles rename is blocking
system.switch_cpus1.rename.serializeStallCycles      1070564                       # count of cycles rename stalled for serializing inst
system.switch_cpus1.rename.RunCycles         20270997                       # Number of cycles rename is running
system.switch_cpus1.rename.UnblockCycles       695926                       # Number of cycles rename is unblocking
system.switch_cpus1.rename.RenamedInsts     114200926                       # Number of instructions processed by rename
system.switch_cpus1.rename.ROBFullEvents            2                       # Number of times rename has blocked due to ROB full
system.switch_cpus1.rename.IQFullEvents         74549                       # Number of times rename has blocked due to IQ full
system.switch_cpus1.rename.LSQFullEvents       423926                       # Number of times rename has blocked due to LSQ full
system.switch_cpus1.rename.RenamedOperands    150869827                       # Number of destination operands rename has renamed
system.switch_cpus1.rename.RenameLookups    516466946                       # Number of register rename lookups that rename has made
system.switch_cpus1.rename.int_rename_lookups    516466946                       # Number of integer rename lookups
system.switch_cpus1.rename.CommittedMaps    124774001                       # Number of HB maps that are committed
system.switch_cpus1.rename.UndoneMaps        26095819                       # Number of HB maps that are undone due to squashing
system.switch_cpus1.rename.serializingInsts        15776                       # count of serializing insts renamed
system.switch_cpus1.rename.tempSerializingInsts         7896                       # count of temporary serializing insts renamed
system.switch_cpus1.rename.skidInsts          2183753                       # count of insts added to the skid buffer
system.switch_cpus1.memDep0.insertedLoads     19813842                       # Number of loads inserted to the mem dependence unit.
system.switch_cpus1.memDep0.insertedStores      3533623                       # Number of stores inserted to the mem dependence unit.
system.switch_cpus1.memDep0.conflictingLoads        63736                       # Number of conflicting loads.
system.switch_cpus1.memDep0.conflictingStores       792065                       # Number of conflicting stores.
system.switch_cpus1.iq.iqInstsAdded         113773048                       # Number of instructions added to the IQ (excludes non-spec)
system.switch_cpus1.iq.iqNonSpecInstsAdded        15776                       # Number of non-speculative instructions added to the IQ
system.switch_cpus1.iq.iqInstsIssued        108052376                       # Number of instructions issued
system.switch_cpus1.iq.iqSquashedInstsIssued        68679                       # Number of squashed instructions issued
system.switch_cpus1.iq.iqSquashedInstsExamined     17136042                       # Number of squashed instructions iterated over during squash; mainly for profiling
system.switch_cpus1.iq.iqSquashedOperandsExamined     36040909                       # Number of squashed operands that are examined and possibly removed from graph
system.switch_cpus1.iq.iqSquashedNonSpecRemoved           16                       # Number of squashed non-spec instructions that were removed
system.switch_cpus1.iq.issued_per_cycle::samples    218513095                       # Number of insts issued each cycle
system.switch_cpus1.iq.issued_per_cycle::mean     0.494489                       # Number of insts issued each cycle
system.switch_cpus1.iq.issued_per_cycle::stdev     1.177641                       # Number of insts issued each cycle
system.switch_cpus1.iq.issued_per_cycle::underflows            0      0.00%      0.00% # Number of insts issued each cycle
system.switch_cpus1.iq.issued_per_cycle::0    172274545     78.84%     78.84% # Number of insts issued each cycle
system.switch_cpus1.iq.issued_per_cycle::1     19392744      8.87%     87.71% # Number of insts issued each cycle
system.switch_cpus1.iq.issued_per_cycle::2      9930239      4.54%     92.26% # Number of insts issued each cycle
system.switch_cpus1.iq.issued_per_cycle::3      5726957      2.62%     94.88% # Number of insts issued each cycle
system.switch_cpus1.iq.issued_per_cycle::4      6368800      2.91%     97.79% # Number of insts issued each cycle
system.switch_cpus1.iq.issued_per_cycle::5      3187008      1.46%     99.25% # Number of insts issued each cycle
system.switch_cpus1.iq.issued_per_cycle::6      1278427      0.59%     99.84% # Number of insts issued each cycle
system.switch_cpus1.iq.issued_per_cycle::7       297519      0.14%     99.97% # Number of insts issued each cycle
system.switch_cpus1.iq.issued_per_cycle::8        56856      0.03%    100.00% # Number of insts issued each cycle
system.switch_cpus1.iq.issued_per_cycle::overflows            0      0.00%    100.00% # Number of insts issued each cycle
system.switch_cpus1.iq.issued_per_cycle::min_value            0                       # Number of insts issued each cycle
system.switch_cpus1.iq.issued_per_cycle::max_value            8                       # Number of insts issued each cycle
system.switch_cpus1.iq.issued_per_cycle::total    218513095                       # Number of insts issued each cycle
system.switch_cpus1.iq.fu_full::No_OpClass            0      0.00%      0.00% # attempts to use FU when none available
system.switch_cpus1.iq.fu_full::IntAlu         200372     48.08%     48.08% # attempts to use FU when none available
system.switch_cpus1.iq.fu_full::IntMult             0      0.00%     48.08% # attempts to use FU when none available
system.switch_cpus1.iq.fu_full::IntDiv              0      0.00%     48.08% # attempts to use FU when none available
system.switch_cpus1.iq.fu_full::FloatAdd            0      0.00%     48.08% # attempts to use FU when none available
system.switch_cpus1.iq.fu_full::FloatCmp            0      0.00%     48.08% # attempts to use FU when none available
system.switch_cpus1.iq.fu_full::FloatCvt            0      0.00%     48.08% # attempts to use FU when none available
system.switch_cpus1.iq.fu_full::FloatMult            0      0.00%     48.08% # attempts to use FU when none available
system.switch_cpus1.iq.fu_full::FloatDiv            0      0.00%     48.08% # attempts to use FU when none available
system.switch_cpus1.iq.fu_full::FloatSqrt            0      0.00%     48.08% # attempts to use FU when none available
system.switch_cpus1.iq.fu_full::SimdAdd             0      0.00%     48.08% # attempts to use FU when none available
system.switch_cpus1.iq.fu_full::SimdAddAcc            0      0.00%     48.08% # attempts to use FU when none available
system.switch_cpus1.iq.fu_full::SimdAlu             0      0.00%     48.08% # attempts to use FU when none available
system.switch_cpus1.iq.fu_full::SimdCmp             0      0.00%     48.08% # attempts to use FU when none available
system.switch_cpus1.iq.fu_full::SimdCvt             0      0.00%     48.08% # attempts to use FU when none available
system.switch_cpus1.iq.fu_full::SimdMisc            0      0.00%     48.08% # attempts to use FU when none available
system.switch_cpus1.iq.fu_full::SimdMult            0      0.00%     48.08% # attempts to use FU when none available
system.switch_cpus1.iq.fu_full::SimdMultAcc            0      0.00%     48.08% # attempts to use FU when none available
system.switch_cpus1.iq.fu_full::SimdShift            0      0.00%     48.08% # attempts to use FU when none available
system.switch_cpus1.iq.fu_full::SimdShiftAcc            0      0.00%     48.08% # attempts to use FU when none available
system.switch_cpus1.iq.fu_full::SimdSqrt            0      0.00%     48.08% # attempts to use FU when none available
system.switch_cpus1.iq.fu_full::SimdFloatAdd            0      0.00%     48.08% # attempts to use FU when none available
system.switch_cpus1.iq.fu_full::SimdFloatAlu            0      0.00%     48.08% # attempts to use FU when none available
system.switch_cpus1.iq.fu_full::SimdFloatCmp            0      0.00%     48.08% # attempts to use FU when none available
system.switch_cpus1.iq.fu_full::SimdFloatCvt            0      0.00%     48.08% # attempts to use FU when none available
system.switch_cpus1.iq.fu_full::SimdFloatDiv            0      0.00%     48.08% # attempts to use FU when none available
system.switch_cpus1.iq.fu_full::SimdFloatMisc            0      0.00%     48.08% # attempts to use FU when none available
system.switch_cpus1.iq.fu_full::SimdFloatMult            0      0.00%     48.08% # attempts to use FU when none available
system.switch_cpus1.iq.fu_full::SimdFloatMultAcc            0      0.00%     48.08% # attempts to use FU when none available
system.switch_cpus1.iq.fu_full::SimdFloatSqrt            0      0.00%     48.08% # attempts to use FU when none available
system.switch_cpus1.iq.fu_full::MemRead        152352     36.56%     84.64% # attempts to use FU when none available
system.switch_cpus1.iq.fu_full::MemWrite        63992     15.36%    100.00% # attempts to use FU when none available
system.switch_cpus1.iq.fu_full::IprAccess            0      0.00%    100.00% # attempts to use FU when none available
system.switch_cpus1.iq.fu_full::InstPrefetch            0      0.00%    100.00% # attempts to use FU when none available
system.switch_cpus1.iq.FU_type_0::No_OpClass            0      0.00%      0.00% # Type of FU issued
system.switch_cpus1.iq.FU_type_0::IntAlu     84870137     78.55%     78.55% # Type of FU issued
system.switch_cpus1.iq.FU_type_0::IntMult       859300      0.80%     79.34% # Type of FU issued
system.switch_cpus1.iq.FU_type_0::IntDiv            0      0.00%     79.34% # Type of FU issued
system.switch_cpus1.iq.FU_type_0::FloatAdd            0      0.00%     79.34% # Type of FU issued
system.switch_cpus1.iq.FU_type_0::FloatCmp            0      0.00%     79.34% # Type of FU issued
system.switch_cpus1.iq.FU_type_0::FloatCvt            0      0.00%     79.34% # Type of FU issued
system.switch_cpus1.iq.FU_type_0::FloatMult            0      0.00%     79.34% # Type of FU issued
system.switch_cpus1.iq.FU_type_0::FloatDiv            0      0.00%     79.34% # Type of FU issued
system.switch_cpus1.iq.FU_type_0::FloatSqrt            0      0.00%     79.34% # Type of FU issued
system.switch_cpus1.iq.FU_type_0::SimdAdd            0      0.00%     79.34% # Type of FU issued
system.switch_cpus1.iq.FU_type_0::SimdAddAcc            0      0.00%     79.34% # Type of FU issued
system.switch_cpus1.iq.FU_type_0::SimdAlu            0      0.00%     79.34% # Type of FU issued
system.switch_cpus1.iq.FU_type_0::SimdCmp            0      0.00%     79.34% # Type of FU issued
system.switch_cpus1.iq.FU_type_0::SimdCvt            0      0.00%     79.34% # Type of FU issued
system.switch_cpus1.iq.FU_type_0::SimdMisc            0      0.00%     79.34% # Type of FU issued
system.switch_cpus1.iq.FU_type_0::SimdMult            0      0.00%     79.34% # Type of FU issued
system.switch_cpus1.iq.FU_type_0::SimdMultAcc            0      0.00%     79.34% # Type of FU issued
system.switch_cpus1.iq.FU_type_0::SimdShift            0      0.00%     79.34% # Type of FU issued
system.switch_cpus1.iq.FU_type_0::SimdShiftAcc            0      0.00%     79.34% # Type of FU issued
system.switch_cpus1.iq.FU_type_0::SimdSqrt            0      0.00%     79.34% # Type of FU issued
system.switch_cpus1.iq.FU_type_0::SimdFloatAdd            0      0.00%     79.34% # Type of FU issued
system.switch_cpus1.iq.FU_type_0::SimdFloatAlu            0      0.00%     79.34% # Type of FU issued
system.switch_cpus1.iq.FU_type_0::SimdFloatCmp            0      0.00%     79.34% # Type of FU issued
system.switch_cpus1.iq.FU_type_0::SimdFloatCvt            0      0.00%     79.34% # Type of FU issued
system.switch_cpus1.iq.FU_type_0::SimdFloatDiv            0      0.00%     79.34% # Type of FU issued
system.switch_cpus1.iq.FU_type_0::SimdFloatMisc         7880      0.01%     79.35% # Type of FU issued
system.switch_cpus1.iq.FU_type_0::SimdFloatMult            0      0.00%     79.35% # Type of FU issued
system.switch_cpus1.iq.FU_type_0::SimdFloatMultAcc            0      0.00%     79.35% # Type of FU issued
system.switch_cpus1.iq.FU_type_0::SimdFloatSqrt            0      0.00%     79.35% # Type of FU issued
system.switch_cpus1.iq.FU_type_0::MemRead     18799376     17.40%     96.75% # Type of FU issued
system.switch_cpus1.iq.FU_type_0::MemWrite      3515683      3.25%    100.00% # Type of FU issued
system.switch_cpus1.iq.FU_type_0::IprAccess            0      0.00%    100.00% # Type of FU issued
system.switch_cpus1.iq.FU_type_0::InstPrefetch            0      0.00%    100.00% # Type of FU issued
system.switch_cpus1.iq.FU_type_0::total     108052376                       # Type of FU issued
system.switch_cpus1.iq.rate                  0.454777                       # Inst issue rate
system.switch_cpus1.iq.fu_busy_cnt             416716                       # FU busy when requested
system.switch_cpus1.iq.fu_busy_rate          0.003857                       # FU busy rate (busy events/executed inst)
system.switch_cpus1.iq.int_inst_queue_reads    435103242                       # Number of integer instruction queue reads
system.switch_cpus1.iq.int_inst_queue_writes    130925133                       # Number of integer instruction queue writes
system.switch_cpus1.iq.int_inst_queue_wakeup_accesses    105561110                       # Number of integer instruction queue wakeup accesses
system.switch_cpus1.iq.fp_inst_queue_reads            0                       # Number of floating instruction queue reads
system.switch_cpus1.iq.fp_inst_queue_writes            0                       # Number of floating instruction queue writes
system.switch_cpus1.iq.fp_inst_queue_wakeup_accesses            0                       # Number of floating instruction queue wakeup accesses
system.switch_cpus1.iq.int_alu_accesses     108469092                       # Number of integer alu accesses
system.switch_cpus1.iq.fp_alu_accesses              0                       # Number of floating point alu accesses
system.switch_cpus1.iew.lsq.thread0.forwLoads       192138                       # Number of loads that had data forwarded from stores
system.switch_cpus1.iew.lsq.thread0.invAddrLoads            0                       # Number of loads ignored due to an invalid address
system.switch_cpus1.iew.lsq.thread0.squashedLoads      3283642                       # Number of loads squashed
system.switch_cpus1.iew.lsq.thread0.ignoredResponses          167                       # Number of memory responses ignored because the instruction is squashed
system.switch_cpus1.iew.lsq.thread0.memOrderViolation          267                       # Number of memory ordering violations
system.switch_cpus1.iew.lsq.thread0.squashedStores        94646                       # Number of stores squashed
system.switch_cpus1.iew.lsq.thread0.invAddrSwpfs            0                       # Number of software prefetches ignored due to an invalid address
system.switch_cpus1.iew.lsq.thread0.blockedLoads            0                       # Number of blocked loads due to partial load-store forwarding
system.switch_cpus1.iew.lsq.thread0.rescheduledLoads            0                       # Number of loads that were rescheduled
system.switch_cpus1.iew.lsq.thread0.cacheBlocked            0                       # Number of times an access to memory failed due to the cache being blocked
system.switch_cpus1.iew.iewIdleCycles               0                       # Number of cycles IEW is idle
system.switch_cpus1.iew.iewSquashCycles       3167592                       # Number of cycles IEW is squashing
system.switch_cpus1.iew.iewBlockCycles        1014212                       # Number of cycles IEW is blocking
system.switch_cpus1.iew.iewUnblockCycles        54560                       # Number of cycles IEW is unblocking
system.switch_cpus1.iew.iewDispatchedInsts    113788825                       # Number of instructions dispatched to IQ
system.switch_cpus1.iew.iewDispSquashedInsts         4990                       # Number of squashed instructions skipped by dispatch
system.switch_cpus1.iew.iewDispLoadInsts     19813842                       # Number of dispatched load instructions
system.switch_cpus1.iew.iewDispStoreInsts      3533623                       # Number of dispatched store instructions
system.switch_cpus1.iew.iewDispNonSpecInsts         7896                       # Number of dispatched non-speculative instructions
system.switch_cpus1.iew.iewIQFullEvents         31705                       # Number of times the IQ has become full, causing a stall
system.switch_cpus1.iew.iewLSQFullEvents          430                       # Number of times the LSQ has become full, causing a stall
system.switch_cpus1.iew.memOrderViolationEvents          267                       # Number of memory order violations
system.switch_cpus1.iew.predictedTakenIncorrect       696990                       # Number of branches that were predicted taken incorrectly
system.switch_cpus1.iew.predictedNotTakenIncorrect       930534                       # Number of branches that were predicted not taken incorrectly
system.switch_cpus1.iew.branchMispredicts      1627524                       # Number of branch mispredicts detected at execute
system.switch_cpus1.iew.iewExecutedInsts    107099361                       # Number of executed instructions
system.switch_cpus1.iew.iewExecLoadInsts     18564339                       # Number of load instructions executed
system.switch_cpus1.iew.iewExecSquashedInsts       953015                       # Number of squashed instructions skipped in execute
system.switch_cpus1.iew.exec_swp                    0                       # number of swp insts executed
system.switch_cpus1.iew.exec_nop                    1                       # number of nop insts executed
system.switch_cpus1.iew.exec_refs            22079974                       # number of memory reference insts executed
system.switch_cpus1.iew.exec_branches        16543513                       # Number of branches executed
system.switch_cpus1.iew.exec_stores           3515635                       # Number of stores executed
system.switch_cpus1.iew.exec_rate            0.450765                       # Inst execution rate
system.switch_cpus1.iew.wb_sent             105589278                       # cumulative count of insts sent to commit
system.switch_cpus1.iew.wb_count            105561110                       # cumulative count of insts written-back
system.switch_cpus1.iew.wb_producers         60388883                       # num instructions producing a value
system.switch_cpus1.iew.wb_consumers        139613048                       # num instructions consuming a value
system.switch_cpus1.iew.wb_penalized                0                       # number of instrctions required to write to 'other' IQ
system.switch_cpus1.iew.wb_rate              0.444291                       # insts written-back per cycle
system.switch_cpus1.iew.wb_fanout            0.432545                       # average fanout of values written-back
system.switch_cpus1.iew.wb_penalized_rate            0                       # fraction of instructions written-back that wrote to 'other' IQ
system.switch_cpus1.commit.commitCommittedInsts     84932648                       # The number of committed instructions
system.switch_cpus1.commit.commitCommittedOps     95743753                       # The number of committed instructions
system.switch_cpus1.commit.commitSquashedInsts     18047233                       # The number of squashed insts skipped by commit
system.switch_cpus1.commit.commitNonSpecStalls        15760                       # The number of times commit has been forced to stall to communicate backwards
system.switch_cpus1.commit.branchMispredicts      1549636                       # The number of times a branch was mispredicted
system.switch_cpus1.commit.committed_per_cycle::samples    215345503                       # Number of insts commited each cycle
system.switch_cpus1.commit.committed_per_cycle::mean     0.444605                       # Number of insts commited each cycle
system.switch_cpus1.commit.committed_per_cycle::stdev     1.294585                       # Number of insts commited each cycle
system.switch_cpus1.commit.committed_per_cycle::underflows            0      0.00%      0.00% # Number of insts commited each cycle
system.switch_cpus1.commit.committed_per_cycle::0    179440486     83.33%     83.33% # Number of insts commited each cycle
system.switch_cpus1.commit.committed_per_cycle::1     13627654      6.33%     89.66% # Number of insts commited each cycle
system.switch_cpus1.commit.committed_per_cycle::2     10620073      4.93%     94.59% # Number of insts commited each cycle
system.switch_cpus1.commit.committed_per_cycle::3      2102369      0.98%     95.56% # Number of insts commited each cycle
system.switch_cpus1.commit.committed_per_cycle::4      2658353      1.23%     96.80% # Number of insts commited each cycle
system.switch_cpus1.commit.committed_per_cycle::5       901296      0.42%     97.22% # Number of insts commited each cycle
system.switch_cpus1.commit.committed_per_cycle::6      3841162      1.78%     99.00% # Number of insts commited each cycle
system.switch_cpus1.commit.committed_per_cycle::7       850898      0.40%     99.39% # Number of insts commited each cycle
system.switch_cpus1.commit.committed_per_cycle::8      1303212      0.61%    100.00% # Number of insts commited each cycle
system.switch_cpus1.commit.committed_per_cycle::overflows            0      0.00%    100.00% # Number of insts commited each cycle
system.switch_cpus1.commit.committed_per_cycle::min_value            0                       # Number of insts commited each cycle
system.switch_cpus1.commit.committed_per_cycle::max_value            8                       # Number of insts commited each cycle
system.switch_cpus1.commit.committed_per_cycle::total    215345503                       # Number of insts commited each cycle
system.switch_cpus1.commit.committedInsts     84932648                       # Number of instructions committed
system.switch_cpus1.commit.committedOps      95743753                       # Number of ops (including micro ops) committed
system.switch_cpus1.commit.swp_count                0                       # Number of s/w prefetches committed
system.switch_cpus1.commit.refs              19969174                       # Number of memory references committed
[...]
system.cpu2.icache.ReadReq_avg_miss_latency::total 145518.812500                       # average ReadReq miss latency
system.cpu2.icache.demand_avg_miss_latency::switch_cpus2.inst 145518.812500                       # average overall miss latency
system.cpu2.icache.demand_avg_miss_latency::total 145518.812500                       # average overall miss latency
system.cpu2.icache.overall_avg_miss_latency::switch_cpus2.inst 145518.812500                       # average overall miss latency
system.cpu2.icache.overall_avg_miss_latency::total 145518.812500                       # average overall miss latency
system.cpu2.icache.blocked_cycles::no_mshrs            0                       # number of cycles access was blocked
system.cpu2.icache.blocked_cycles::no_targets            0                       # number of cycles access was blocked
system.cpu2.icache.blocked::no_mshrs                0                       # number of cycles access was blocked
system.cpu2.icache.blocked::no_targets              0                       # number of cycles access was blocked
system.cpu2.icache.avg_blocked_cycles::no_mshrs          nan                       # average number of cycles each access was blocked
system.cpu2.icache.avg_blocked_cycles::no_targets          nan                       # average number of cycles each access was blocked
system.cpu2.icache.fast_writes                      0                       # number of fast writes performed
system.cpu2.icache.cache_copies                     0                       # number of cache copies performed
system.cpu2.icache.ReadReq_mshr_hits::switch_cpus2.inst            3                       # number of ReadReq MSHR hits
system.cpu2.icache.ReadReq_mshr_hits::total            3                       # number of ReadReq MSHR hits
system.cpu2.icache.demand_mshr_hits::switch_cpus2.inst            3                       # number of demand (read+write) MSHR hits
system.cpu2.icache.demand_mshr_hits::total            3                       # number of demand (read+write) MSHR hits
system.cpu2.icache.overall_mshr_hits::switch_cpus2.inst            3                       # number of overall MSHR hits
system.cpu2.icache.overall_mshr_hits::total            3                       # number of overall MSHR hits
system.cpu2.icache.ReadReq_mshr_misses::switch_cpus2.inst           13                       # number of ReadReq MSHR misses
system.cpu2.icache.ReadReq_mshr_misses::total           13                       # number of ReadReq MSHR misses
system.cpu2.icache.demand_mshr_misses::switch_cpus2.inst           13                       # number of demand (read+write) MSHR misses
system.cpu2.icache.demand_mshr_misses::total           13                       # number of demand (read+write) MSHR misses
system.cpu2.icache.overall_mshr_misses::switch_cpus2.inst           13                       # number of overall MSHR misses
system.cpu2.icache.overall_mshr_misses::total           13                       # number of overall MSHR misses
system.cpu2.icache.ReadReq_mshr_miss_latency::switch_cpus2.inst      2023477                       # number of ReadReq MSHR miss cycles
system.cpu2.icache.ReadReq_mshr_miss_latency::total      2023477                       # number of ReadReq MSHR miss cycles
system.cpu2.icache.demand_mshr_miss_latency::switch_cpus2.inst      2023477                       # number of demand (read+write) MSHR miss cycles
system.cpu2.icache.demand_mshr_miss_latency::total      2023477                       # number of demand (read+write) MSHR miss cycles
system.cpu2.icache.overall_mshr_miss_latency::switch_cpus2.inst      2023477                       # number of overall MSHR miss cycles
system.cpu2.icache.overall_mshr_miss_latency::total      2023477                       # number of overall MSHR miss cycles
system.cpu2.icache.ReadReq_mshr_miss_rate::switch_cpus2.inst     0.000001                       # mshr miss rate for ReadReq accesses
system.cpu2.icache.ReadReq_mshr_miss_rate::total     0.000001                       # mshr miss rate for ReadReq accesses
system.cpu2.icache.demand_mshr_miss_rate::switch_cpus2.inst     0.000001                       # mshr miss rate for demand accesses
system.cpu2.icache.demand_mshr_miss_rate::total     0.000001                       # mshr miss rate for demand accesses
system.cpu2.icache.overall_mshr_miss_rate::switch_cpus2.inst     0.000001                       # mshr miss rate for overall accesses
system.cpu2.icache.overall_mshr_miss_rate::total     0.000001                       # mshr miss rate for overall accesses
system.cpu2.icache.ReadReq_avg_mshr_miss_latency::switch_cpus2.inst 155652.076923                       # average ReadReq mshr miss latency
system.cpu2.icache.ReadReq_avg_mshr_miss_latency::total 155652.076923                       # average ReadReq mshr miss latency
system.cpu2.icache.demand_avg_mshr_miss_latency::switch_cpus2.inst 155652.076923                       # average overall mshr miss latency
system.cpu2.icache.demand_avg_mshr_miss_latency::total 155652.076923                       # average overall mshr miss latency
system.cpu2.icache.overall_avg_mshr_miss_latency::switch_cpus2.inst 155652.076923                       # average overall mshr miss latency
system.cpu2.icache.overall_avg_mshr_miss_latency::total 155652.076923                       # average overall mshr miss latency
system.cpu2.icache.no_allocate_misses               0                       # Number of misses that were no-allocate
system.cpu2.dcache.replacements                 49714                       # number of replacements
system.cpu2.dcache.tagsinuse                      256                       # Cycle average of tags in use
system.cpu2.dcache.total_refs               171041373                       # Total number of references to valid blocks.
system.cpu2.dcache.sampled_refs                 49970                       # Sample count of references to valid blocks.
system.cpu2.dcache.avg_refs               3422.881189                       # Average number of references to valid blocks.
system.cpu2.dcache.warmup_cycle                     0                       # Cycle when the warmup percentage was hit.
system.cpu2.dcache.occ_blocks::switch_cpus2.data   233.252568                       # Average occupied blocks per requestor
system.cpu2.dcache.occ_blocks::cpu2.data    22.747432                       # Average occupied blocks per requestor
system.cpu2.dcache.occ_percent::switch_cpus2.data     0.911143                       # Average percentage of cache occupancy
system.cpu2.dcache.occ_percent::cpu2.data     0.088857                       # Average percentage of cache occupancy
system.cpu2.dcache.occ_percent::total               1                       # Average percentage of cache occupancy
system.cpu2.dcache.ReadReq_hits::switch_cpus2.data      8117719                       # number of ReadReq hits
system.cpu2.dcache.ReadReq_hits::total        8117719                       # number of ReadReq hits
system.cpu2.dcache.WriteReq_hits::switch_cpus2.data      6802822                       # number of WriteReq hits
system.cpu2.dcache.WriteReq_hits::total       6802822                       # number of WriteReq hits
system.cpu2.dcache.LoadLockedReq_hits::switch_cpus2.data        16545                       # number of LoadLockedReq hits
system.cpu2.dcache.LoadLockedReq_hits::total        16545                       # number of LoadLockedReq hits
system.cpu2.dcache.StoreCondReq_hits::switch_cpus2.data        15782                       # number of StoreCondReq hits
system.cpu2.dcache.StoreCondReq_hits::total        15782                       # number of StoreCondReq hits
system.cpu2.dcache.demand_hits::switch_cpus2.data     14920541                       # number of demand (read+write) hits
system.cpu2.dcache.demand_hits::total        14920541                       # number of demand (read+write) hits
system.cpu2.dcache.overall_hits::switch_cpus2.data     14920541                       # number of overall hits
system.cpu2.dcache.overall_hits::total       14920541                       # number of overall hits
system.cpu2.dcache.ReadReq_misses::switch_cpus2.data       140097                       # number of ReadReq misses
system.cpu2.dcache.ReadReq_misses::total       140097                       # number of ReadReq misses
system.cpu2.dcache.WriteReq_misses::switch_cpus2.data         2682                       # number of WriteReq misses
system.cpu2.dcache.WriteReq_misses::total         2682                       # number of WriteReq misses
system.cpu2.dcache.demand_misses::switch_cpus2.data       142779                       # number of demand (read+write) misses
system.cpu2.dcache.demand_misses::total        142779                       # number of demand (read+write) misses
system.cpu2.dcache.overall_misses::switch_cpus2.data       142779                       # number of overall misses
system.cpu2.dcache.overall_misses::total       142779                       # number of overall misses
system.cpu2.dcache.ReadReq_miss_latency::switch_cpus2.data  14084702163                       # number of ReadReq miss cycles
system.cpu2.dcache.ReadReq_miss_latency::total  14084702163                       # number of ReadReq miss cycles
system.cpu2.dcache.WriteReq_miss_latency::switch_cpus2.data    389758909                       # number of WriteReq miss cycles
system.cpu2.dcache.WriteReq_miss_latency::total    389758909                       # number of WriteReq miss cycles
system.cpu2.dcache.demand_miss_latency::switch_cpus2.data  14474461072                       # number of demand (read+write) miss cycles
system.cpu2.dcache.demand_miss_latency::total  14474461072                       # number of demand (read+write) miss cycles
system.cpu2.dcache.overall_miss_latency::switch_cpus2.data  14474461072                       # number of overall miss cycles
system.cpu2.dcache.overall_miss_latency::total  14474461072                       # number of overall miss cycles
system.cpu2.dcache.ReadReq_accesses::switch_cpus2.data      8257816                       # number of ReadReq accesses(hits+misses)
system.cpu2.dcache.ReadReq_accesses::total      8257816                       # number of ReadReq accesses(hits+misses)
system.cpu2.dcache.WriteReq_accesses::switch_cpus2.data      6805504                       # number of WriteReq accesses(hits+misses)
system.cpu2.dcache.WriteReq_accesses::total      6805504                       # number of WriteReq accesses(hits+misses)
system.cpu2.dcache.LoadLockedReq_accesses::switch_cpus2.data        16545                       # number of LoadLockedReq accesses(hits+misses)
system.cpu2.dcache.LoadLockedReq_accesses::total        16545                       # number of LoadLockedReq accesses(hits+misses)
system.cpu2.dcache.StoreCondReq_accesses::switch_cpus2.data        15782                       # number of StoreCondReq accesses(hits+misses)
system.cpu2.dcache.StoreCondReq_accesses::total        15782                       # number of StoreCondReq accesses(hits+misses)
system.cpu2.dcache.demand_accesses::switch_cpus2.data     15063320                       # number of demand (read+write) accesses
system.cpu2.dcache.demand_accesses::total     15063320                       # number of demand (read+write) accesses
system.cpu2.dcache.overall_accesses::switch_cpus2.data     15063320                       # number of overall (read+write) accesses
system.cpu2.dcache.overall_accesses::total     15063320                       # number of overall (read+write) accesses
system.cpu2.dcache.ReadReq_miss_rate::switch_cpus2.data     0.016965                       # miss rate for ReadReq accesses
system.cpu2.dcache.ReadReq_miss_rate::total     0.016965                       # miss rate for ReadReq accesses
system.cpu2.dcache.WriteReq_miss_rate::switch_cpus2.data     0.000394                       # miss rate for WriteReq accesses
system.cpu2.dcache.WriteReq_miss_rate::total     0.000394                       # miss rate for WriteReq accesses
system.cpu2.dcache.demand_miss_rate::switch_cpus2.data     0.009479                       # miss rate for demand accesses
system.cpu2.dcache.demand_miss_rate::total     0.009479                       # miss rate for demand accesses
system.cpu2.dcache.overall_miss_rate::switch_cpus2.data     0.009479                       # miss rate for overall accesses
system.cpu2.dcache.overall_miss_rate::total     0.009479                       # miss rate for overall accesses
system.cpu2.dcache.ReadReq_avg_miss_latency::switch_cpus2.data 100535.358809                       # average ReadReq miss latency
system.cpu2.dcache.ReadReq_avg_miss_latency::total 100535.358809                       # average ReadReq miss latency
system.cpu2.dcache.WriteReq_avg_miss_latency::switch_cpus2.data 145323.978001                       # average WriteReq miss latency
system.cpu2.dcache.WriteReq_avg_miss_latency::total 145323.978001                       # average WriteReq miss latency
system.cpu2.dcache.demand_avg_miss_latency::switch_cpus2.data 101376.680548                       # average overall miss latency
system.cpu2.dcache.demand_avg_miss_latency::total 101376.680548                       # average overall miss latency
system.cpu2.dcache.overall_avg_miss_latency::switch_cpus2.data 101376.680548                       # average overall miss latency
system.cpu2.dcache.overall_avg_miss_latency::total 101376.680548                       # average overall miss latency
system.cpu2.dcache.blocked_cycles::no_mshrs            0                       # number of cycles access was blocked
system.cpu2.dcache.blocked_cycles::no_targets       360188                       # number of cycles access was blocked
system.cpu2.dcache.blocked::no_mshrs                0                       # number of cycles access was blocked
system.cpu2.dcache.blocked::no_targets              4                       # number of cycles access was blocked
system.cpu2.dcache.avg_blocked_cycles::no_mshrs          nan                       # average number of cycles each access was blocked
system.cpu2.dcache.avg_blocked_cycles::no_targets        90047                       # average number of cycles each access was blocked
system.cpu2.dcache.fast_writes                      0                       # number of fast writes performed
system.cpu2.dcache.cache_copies                     0                       # number of cache copies performed
system.cpu2.dcache.writebacks::writebacks        22893                       # number of writebacks
system.cpu2.dcache.writebacks::total            22893                       # number of writebacks
system.cpu2.dcache.ReadReq_mshr_hits::switch_cpus2.data        90387                       # number of ReadReq MSHR hits
system.cpu2.dcache.ReadReq_mshr_hits::total        90387                       # number of ReadReq MSHR hits
system.cpu2.dcache.WriteReq_mshr_hits::switch_cpus2.data         2678                       # number of WriteReq MSHR hits
system.cpu2.dcache.WriteReq_mshr_hits::total         2678                       # number of WriteReq MSHR hits
system.cpu2.dcache.demand_mshr_hits::switch_cpus2.data        93065                       # number of demand (read+write) MSHR hits
system.cpu2.dcache.demand_mshr_hits::total        93065                       # number of demand (read+write) MSHR hits
system.cpu2.dcache.overall_mshr_hits::switch_cpus2.data        93065                       # number of overall MSHR hits
system.cpu2.dcache.overall_mshr_hits::total        93065                       # number of overall MSHR hits
system.cpu2.dcache.ReadReq_mshr_misses::switch_cpus2.data        49710                       # number of ReadReq MSHR misses
system.cpu2.dcache.ReadReq_mshr_misses::total        49710                       # number of ReadReq MSHR misses
system.cpu2.dcache.WriteReq_mshr_misses::switch_cpus2.data            4                       # number of WriteReq MSHR misses
system.cpu2.dcache.WriteReq_mshr_misses::total            4                       # number of WriteReq MSHR misses
system.cpu2.dcache.demand_mshr_misses::switch_cpus2.data        49714                       # number of demand (read+write) MSHR misses
system.cpu2.dcache.demand_mshr_misses::total        49714                       # number of demand (read+write) MSHR misses
system.cpu2.dcache.overall_mshr_misses::switch_cpus2.data        49714                       # number of overall MSHR misses
system.cpu2.dcache.overall_mshr_misses::total        49714                       # number of overall MSHR misses
system.cpu2.dcache.ReadReq_mshr_miss_latency::switch_cpus2.data   4127984460                       # number of ReadReq MSHR miss cycles
system.cpu2.dcache.ReadReq_mshr_miss_latency::total   4127984460                       # number of ReadReq MSHR miss cycles
system.cpu2.dcache.WriteReq_mshr_miss_latency::switch_cpus2.data       739989                       # number of WriteReq MSHR miss cycles
system.cpu2.dcache.WriteReq_mshr_miss_latency::total       739989                       # number of WriteReq MSHR miss cycles
system.cpu2.dcache.demand_mshr_miss_latency::switch_cpus2.data   4128724449                       # number of demand (read+write) MSHR miss cycles
system.cpu2.dcache.demand_mshr_miss_latency::total   4128724449                       # number of demand (read+write) MSHR miss cycles
system.cpu2.dcache.overall_mshr_miss_latency::switch_cpus2.data   4128724449                       # number of overall MSHR miss cycles
system.cpu2.dcache.overall_mshr_miss_latency::total   4128724449                       # number of overall MSHR miss cycles
system.cpu2.dcache.ReadReq_mshr_miss_rate::switch_cpus2.data     0.006020                       # mshr miss rate for ReadReq accesses
system.cpu2.dcache.ReadReq_mshr_miss_rate::total     0.006020                       # mshr miss rate for ReadReq accesses
system.cpu2.dcache.WriteReq_mshr_miss_rate::switch_cpus2.data     0.000001                       # mshr miss rate for WriteReq accesses
system.cpu2.dcache.WriteReq_mshr_miss_rate::total     0.000001                       # mshr miss rate for WriteReq accesses
system.cpu2.dcache.demand_mshr_miss_rate::switch_cpus2.data     0.003300                       # mshr miss rate for demand accesses
system.cpu2.dcache.demand_mshr_miss_rate::total     0.003300                       # mshr miss rate for demand accesses
system.cpu2.dcache.overall_mshr_miss_rate::switch_cpus2.data     0.003300                       # mshr miss rate for overall accesses
system.cpu2.dcache.overall_mshr_miss_rate::total     0.003300                       # mshr miss rate for overall accesses
system.cpu2.dcache.ReadReq_avg_mshr_miss_latency::switch_cpus2.data 83041.328908                       # average ReadReq mshr miss latency
system.cpu2.dcache.ReadReq_avg_mshr_miss_latency::total 83041.328908                       # average ReadReq mshr miss latency
system.cpu2.dcache.WriteReq_avg_mshr_miss_latency::switch_cpus2.data 184997.250000                       # average WriteReq mshr miss latency
system.cpu2.dcache.WriteReq_avg_mshr_miss_latency::total 184997.250000                       # average WriteReq mshr miss latency
system.cpu2.dcache.demand_avg_mshr_miss_latency::switch_cpus2.data 83049.532305                       # average overall mshr miss latency
system.cpu2.dcache.demand_avg_mshr_miss_latency::total 83049.532305                       # average overall mshr miss latency
system.cpu2.dcache.overall_avg_mshr_miss_latency::switch_cpus2.data 83049.532305                       # average overall mshr miss latency
system.cpu2.dcache.overall_avg_mshr_miss_latency::total 83049.532305                       # average overall mshr miss latency
system.cpu2.dcache.no_allocate_misses               0                       # Number of misses that were no-allocate

---------- End Simulation Statistics   ----------
