
---------- Begin Simulation Statistics ----------
sim_seconds                                  0.003692                       # Number of seconds simulated
sim_ticks                                  3691681401                       # Number of ticks simulated
final_tick                               533263025655                       # Number of ticks from beginning of simulation (restored from checkpoints and never reset)
sim_freq                                 1000000000000                       # Frequency of simulated ticks
host_inst_rate                                 319785                       # Simulator instruction rate (inst/s)
host_op_rate                                   404846                       # Simulator op (including micro ops) rate (op/s)
host_tick_rate                                 291374                       # Simulator tick rate (ticks/s)
host_mem_usage                               16927420                       # Number of bytes of host memory used
host_seconds                                 12669.92                       # Real time elapsed on the host
sim_insts                                  4051655953                       # Number of instructions simulated
sim_ops                                    5129368184                       # Number of ops (including micro ops) simulated
system.physmem.bytes_read::switch_cpus0.inst         5376                       # Number of bytes read from this memory
system.physmem.bytes_read::switch_cpus0.data       239488                       # Number of bytes read from this memory
system.physmem.bytes_read::switch_cpus1.inst         5120                       # Number of bytes read from this memory
system.physmem.bytes_read::switch_cpus1.data       251904                       # Number of bytes read from this memory
system.physmem.bytes_read::switch_cpus2.inst         5376                       # Number of bytes read from this memory
system.physmem.bytes_read::switch_cpus2.data        77312                       # Number of bytes read from this memory
system.physmem.bytes_read::switch_cpus3.inst         5632                       # Number of bytes read from this memory
system.physmem.bytes_read::switch_cpus3.data       133120                       # Number of bytes read from this memory
system.physmem.bytes_read::total               723328                       # Number of bytes read from this memory
system.physmem.bytes_inst_read::switch_cpus0.inst         5376                       # Number of instructions bytes read from this memory
system.physmem.bytes_inst_read::switch_cpus1.inst         5120                       # Number of instructions bytes read from this memory
system.physmem.bytes_inst_read::switch_cpus2.inst         5376                       # Number of instructions bytes read from this memory
system.physmem.bytes_inst_read::switch_cpus3.inst         5632                       # Number of instructions bytes read from this memory
system.physmem.bytes_inst_read::total           21504                       # Number of instructions bytes read from this memory
system.physmem.bytes_written::writebacks       269312                       # Number of bytes written to this memory
system.physmem.bytes_written::total            269312                       # Number of bytes written to this memory
system.physmem.num_reads::switch_cpus0.inst           42                       # Number of read requests responded to by this memory
system.physmem.num_reads::switch_cpus0.data         1871                       # Number of read requests responded to by this memory
system.physmem.num_reads::switch_cpus1.inst           40                       # Number of read requests responded to by this memory
system.physmem.num_reads::switch_cpus1.data         1968                       # Number of read requests responded to by this memory
system.physmem.num_reads::switch_cpus2.inst           42                       # Number of read requests responded to by this memory
system.physmem.num_reads::switch_cpus2.data          604                       # Number of read requests responded to by this memory
system.physmem.num_reads::switch_cpus3.inst           44                       # Number of read requests responded to by this memory
system.physmem.num_reads::switch_cpus3.data         1040                       # Number of read requests responded to by this memory
system.physmem.num_reads::total                  5651                       # Number of read requests responded to by this memory
system.physmem.num_writes::writebacks            2104                       # Number of write requests responded to by this memory
system.physmem.num_writes::functional               0                       # Number of write requests responded to by this memory
system.physmem.num_writes::interrupt                0                       # Number of write requests responded to by this memory
system.physmem.num_writes::switch_cpus0.dtb.walker            0                       # Number of write requests responded to by this memory
system.physmem.num_writes::switch_cpus0.itb.walker            0                       # Number of write requests responded to by this memory
system.physmem.num_writes::switch_cpus0.inst            0                       # Number of write requests responded to by this memory
system.physmem.num_writes::switch_cpus0.data            0                       # Number of write requests responded to by this memory
system.physmem.num_writes::switch_cpus1.dtb.walker            0                       # Number of write requests responded to by this memory
system.physmem.num_writes::switch_cpus1.itb.walker            0                       # Number of write requests responded to by this memory
system.physmem.num_writes::switch_cpus1.inst            0                       # Number of write requests responded to by this memory
system.physmem.num_writes::switch_cpus1.data            0                       # Number of write requests responded to by this memory
system.physmem.num_writes::switch_cpus2.dtb.walker            0                       # Number of write requests responded to by this memory
system.physmem.num_writes::switch_cpus2.itb.walker            0                       # Number of write requests responded to by this memory
system.physmem.num_writes::switch_cpus2.inst            0                       # Number of write requests responded to by this memory
system.physmem.num_writes::switch_cpus2.data            0                       # Number of write requests responded to by this memory
system.physmem.num_writes::switch_cpus3.dtb.walker            0                       # Number of write requests responded to by this memory
system.physmem.num_writes::switch_cpus3.itb.walker            0                       # Number of write requests responded to by this memory
system.physmem.num_writes::switch_cpus3.inst            0                       # Number of write requests responded to by this memory
system.physmem.num_writes::switch_cpus3.data            0                       # Number of write requests responded to by this memory
system.physmem.num_writes::cpu0.dtb.walker            0                       # Number of write requests responded to by this memory
system.physmem.num_writes::cpu0.itb.walker            0                       # Number of write requests responded to by this memory
system.physmem.num_writes::cpu0.inst                0                       # Number of write requests responded to by this memory
system.physmem.num_writes::cpu0.data                0                       # Number of write requests responded to by this memory
system.physmem.num_writes::cpu1.dtb.walker            0                       # Number of write requests responded to by this memory
system.physmem.num_writes::cpu1.itb.walker            0                       # Number of write requests responded to by this memory
system.physmem.num_writes::cpu1.inst                0                       # Number of write requests responded to by this memory
system.physmem.num_writes::cpu1.data                0                       # Number of write requests responded to by this memory
system.physmem.num_writes::cpu2.dtb.walker            0                       # Number of write requests responded to by this memory
system.physmem.num_writes::cpu2.itb.walker            0                       # Number of write requests responded to by this memory
system.physmem.num_writes::cpu2.inst                0                       # Number of write requests responded to by this memory
system.physmem.num_writes::cpu2.data                0                       # Number of write requests responded to by this memory
system.physmem.num_writes::cpu3.dtb.walker            0                       # Number of write requests responded to by this memory
system.physmem.num_writes::cpu3.itb.walker            0                       # Number of write requests responded to by this memory
system.physmem.num_writes::cpu3.inst                0                       # Number of write requests responded to by this memory
system.physmem.num_writes::cpu3.data                0                       # Number of write requests responded to by this memory
system.physmem.num_writes::total                 2104                       # Number of write requests responded to by this memory
system.physmem.bw_read::switch_cpus0.inst      1456247                       # Total read bandwidth from this memory (bytes/s)
system.physmem.bw_read::switch_cpus0.data     64872337                       # Total read bandwidth from this memory (bytes/s)
system.physmem.bw_read::switch_cpus1.inst      1386902                       # Total read bandwidth from this memory (bytes/s)
system.physmem.bw_read::switch_cpus1.data     68235574                       # Total read bandwidth from this memory (bytes/s)
system.physmem.bw_read::switch_cpus2.inst      1456247                       # Total read bandwidth from this memory (bytes/s)
system.physmem.bw_read::switch_cpus2.data     20942219                       # Total read bandwidth from this memory (bytes/s)
system.physmem.bw_read::switch_cpus3.inst      1525592                       # Total read bandwidth from this memory (bytes/s)
system.physmem.bw_read::switch_cpus3.data     36059450                       # Total read bandwidth from this memory (bytes/s)
system.physmem.bw_read::total               195934568                       # Total read bandwidth from this memory (bytes/s)
system.physmem.bw_inst_read::switch_cpus0.inst      1456247                       # Instruction read bandwidth from this memory (bytes/s)
system.physmem.bw_inst_read::switch_cpus1.inst      1386902                       # Instruction read bandwidth from this memory (bytes/s)
system.physmem.bw_inst_read::switch_cpus2.inst      1456247                       # Instruction read bandwidth from this memory (bytes/s)
system.physmem.bw_inst_read::switch_cpus3.inst      1525592                       # Instruction read bandwidth from this memory (bytes/s)
system.physmem.bw_inst_read::total            5824988                       # Instruction read bandwidth from this memory (bytes/s)
system.physmem.bw_write::writebacks          72951041                       # Write bandwidth from this memory (bytes/s)
system.physmem.bw_write::total               72951041                       # Write bandwidth from this memory (bytes/s)
system.physmem.bw_total::writebacks          72951041                       # Total bandwidth to/from this memory (bytes/s)
system.physmem.bw_total::switch_cpus0.inst      1456247                       # Total bandwidth to/from this memory (bytes/s)
system.physmem.bw_total::switch_cpus0.data     64872337                       # Total bandwidth to/from this memory (bytes/s)
system.physmem.bw_total::switch_cpus1.inst      1386902                       # Total bandwidth to/from this memory (bytes/s)
system.physmem.bw_total::switch_cpus1.data     68235574                       # Total bandwidth to/from this memory (bytes/s)
system.physmem.bw_total::switch_cpus2.inst      1456247                       # Total bandwidth to/from this memory (bytes/s)
system.physmem.bw_total::switch_cpus2.data     20942219                       # Total bandwidth to/from this memory (bytes/s)
system.physmem.bw_total::switch_cpus3.inst      1525592                       # Total bandwidth to/from this memory (bytes/s)
system.physmem.bw_total::switch_cpus3.data     36059450                       # Total bandwidth to/from this memory (bytes/s)
system.physmem.bw_total::total              268885609                       # Total bandwidth to/from this memory (bytes/s)
system.switch_cpus0.dtb.inst_hits                   0                       # ITB inst hits
system.switch_cpus0.dtb.inst_misses                 0                       # ITB inst misses
system.switch_cpus0.dtb.read_hits                   0                       # DTB read hits
system.switch_cpus0.dtb.read_misses                 0                       # DTB read misses
system.switch_cpus0.dtb.write_hits                  0                       # DTB write hits
system.switch_cpus0.dtb.write_misses                0                       # DTB write misses
system.switch_cpus0.dtb.flush_tlb                   0                       # Number of times complete TLB was flushed
system.switch_cpus0.dtb.flush_tlb_mva               0                       # Number of times TLB was flushed by MVA
system.switch_cpus0.dtb.flush_tlb_mva_asid            0                       # Number of times TLB was flushed by MVA & ASID
system.switch_cpus0.dtb.flush_tlb_asid              0                       # Number of times TLB was flushed by ASID
system.switch_cpus0.dtb.flush_entries               0                       # Number of entries that have been flushed from TLB
system.switch_cpus0.dtb.align_faults                0                       # Number of TLB faults due to alignment restrictions
system.switch_cpus0.dtb.prefetch_faults             0                       # Number of TLB faults due to prefetch
system.switch_cpus0.dtb.domain_faults               0                       # Number of TLB faults due to domain restrictions
system.switch_cpus0.dtb.perms_faults                0                       # Number of TLB faults due to permissions restrictions
system.switch_cpus0.dtb.read_accesses               0                       # DTB read accesses
system.switch_cpus0.dtb.write_accesses              0                       # DTB write accesses
system.switch_cpus0.dtb.inst_accesses               0                       # ITB inst accesses
system.switch_cpus0.dtb.hits                        0                       # DTB hits
system.switch_cpus0.dtb.misses                      0                       # DTB misses
system.switch_cpus0.dtb.accesses                    0                       # DTB accesses
system.switch_cpus0.itb.inst_hits                   0                       # ITB inst hits
system.switch_cpus0.itb.inst_misses                 0                       # ITB inst misses
system.switch_cpus0.itb.read_hits                   0                       # DTB read hits
system.switch_cpus0.itb.read_misses                 0                       # DTB read misses
system.switch_cpus0.itb.write_hits                  0                       # DTB write hits
system.switch_cpus0.itb.write_misses                0                       # DTB write misses
system.switch_cpus0.itb.flush_tlb                   0                       # Number of times complete TLB was flushed
system.switch_cpus0.itb.flush_tlb_mva               0                       # Number of times TLB was flushed by MVA
system.switch_cpus0.itb.flush_tlb_mva_asid            0                       # Number of times TLB was flushed by MVA & ASID
system.switch_cpus0.itb.flush_tlb_asid              0                       # Number of times TLB was flushed by ASID
system.switch_cpus0.itb.flush_entries               0                       # Number of entries that have been flushed from TLB
system.switch_cpus0.itb.align_faults                0                       # Number of TLB faults due to alignment restrictions
system.switch_cpus0.itb.prefetch_faults             0                       # Number of TLB faults due to prefetch
system.switch_cpus0.itb.domain_faults               0                       # Number of TLB faults due to domain restrictions
system.switch_cpus0.itb.perms_faults                0                       # Number of TLB faults due to permissions restrictions
system.switch_cpus0.itb.read_accesses               0                       # DTB read accesses
system.switch_cpus0.itb.write_accesses              0                       # DTB write accesses
system.switch_cpus0.itb.inst_accesses               0                       # ITB inst accesses
system.switch_cpus0.itb.hits                        0                       # DTB hits
system.switch_cpus0.itb.misses                      0                       # DTB misses
system.switch_cpus0.itb.accesses                    0                       # DTB accesses
system.cpu0.workload.num_syscalls                  12                       # Number of system calls
system.switch_cpus0.numCycles                 8852954                       # number of cpu cycles simulated
system.switch_cpus0.numWorkItemsStarted             0                       # number of work items this cpu started
system.switch_cpus0.numWorkItemsCompleted            0                       # number of work items this cpu completed
system.switch_cpus0.BPredUnit.lookups         3082967                       # Number of BP lookups
system.switch_cpus0.BPredUnit.condPredicted      2530977                       # Number of conditional branches predicted
system.switch_cpus0.BPredUnit.condIncorrect       206403                       # Number of conditional branches incorrect
system.switch_cpus0.BPredUnit.BTBLookups      1306935                       # Number of BTB lookups
system.switch_cpus0.BPredUnit.BTBHits         1196008                       # Number of BTB hits
system.switch_cpus0.BPredUnit.BTBCorrect            0                       # Number of correct BTB predictions (this stat may not work properly.
system.switch_cpus0.BPredUnit.usedRAS          299386                       # Number of times the RAS was used to get a target.
system.switch_cpus0.BPredUnit.RASInCorrect         8826                       # Number of incorrect RAS predictions.
system.switch_cpus0.fetch.icacheStallCycles      3320297                       # Number of cycles fetch is stalled on an Icache miss
system.switch_cpus0.fetch.Insts              16799281                       # Number of instructions fetch has processed
system.switch_cpus0.fetch.Branches            3082967                       # Number of branches that fetch encountered
system.switch_cpus0.fetch.predictedBranches      1495394                       # Number of branches that fetch has predicted taken
system.switch_cpus0.fetch.Cycles              3597277                       # Number of cycles fetch has run and was not squashing or blocked
system.switch_cpus0.fetch.SquashCycles        1038058                       # Number of cycles fetch has spent squashing
system.switch_cpus0.fetch.BlockedCycles        833811                       # Number of cycles fetch has spent blocked
system.switch_cpus0.fetch.PendingTrapStallCycles            6                       # Number of stall cycles due to pending traps
system.switch_cpus0.fetch.CacheLines          1633364                       # Number of cache lines fetched
system.switch_cpus0.fetch.IcacheSquashes        92070                       # Number of outstanding Icache misses that were squashed
system.switch_cpus0.fetch.rateDist::samples      8579786                       # Number of instructions fetched each cycle (Total)
system.switch_cpus0.fetch.rateDist::mean     2.400948                       # Number of instructions fetched each cycle (Total)
system.switch_cpus0.fetch.rateDist::stdev     3.309436                       # Number of instructions fetched each cycle (Total)
system.switch_cpus0.fetch.rateDist::underflows            0      0.00%      0.00% # Number of instructions fetched each cycle (Total)
system.switch_cpus0.fetch.rateDist::0         4982509     58.07%     58.07% # Number of instructions fetched each cycle (Total)
system.switch_cpus0.fetch.rateDist::1          354798      4.14%     62.21% # Number of instructions fetched each cycle (Total)
system.switch_cpus0.fetch.rateDist::2          337088      3.93%     66.14% # Number of instructions fetched each cycle (Total)
system.switch_cpus0.fetch.rateDist::3          317029      3.70%     69.83% # Number of instructions fetched each cycle (Total)
system.switch_cpus0.fetch.rateDist::4          260492      3.04%     72.87% # Number of instructions fetched each cycle (Total)
system.switch_cpus0.fetch.rateDist::5          187896      2.19%     75.06% # Number of instructions fetched each cycle (Total)
system.switch_cpus0.fetch.rateDist::6          136410      1.59%     76.65% # Number of instructions fetched each cycle (Total)
system.switch_cpus0.fetch.rateDist::7          208864      2.43%     79.08% # Number of instructions fetched each cycle (Total)
system.switch_cpus0.fetch.rateDist::8         1794700     20.92%    100.00% # Number of instructions fetched each cycle (Total)
system.switch_cpus0.fetch.rateDist::overflows            0      0.00%    100.00% # Number of instructions fetched each cycle (Total)
system.switch_cpus0.fetch.rateDist::min_value            0                       # Number of instructions fetched each cycle (Total)
system.switch_cpus0.fetch.rateDist::max_value            8                       # Number of instructions fetched each cycle (Total)
system.switch_cpus0.fetch.rateDist::total      8579786                       # Number of instructions fetched each cycle (Total)
system.switch_cpus0.fetch.branchRate         0.348242                       # Number of branch fetches per cycle
system.switch_cpus0.fetch.rate               1.897590                       # Number of inst fetches per cycle
system.switch_cpus0.decode.IdleCycles         3475847                       # Number of cycles decode is idle
system.switch_cpus0.decode.BlockedCycles       800312                       # Number of cycles decode is blocked
system.switch_cpus0.decode.RunCycles          3438031                       # Number of cycles decode is running
system.switch_cpus0.decode.UnblockCycles        41047                       # Number of cycles decode is unblocking
system.switch_cpus0.decode.SquashCycles        824546                       # Number of cycles decode is squashing
system.switch_cpus0.decode.BranchResolved       496197                       # Number of times decode resolved a branch
system.switch_cpus0.decode.BranchMispred         3874                       # Number of times decode detected a branch misprediction
system.switch_cpus0.decode.DecodedInsts      19953106                       # Number of instructions handled by decode
system.switch_cpus0.decode.SquashedInsts        10452                       # Number of squashed instructions handled by decode
system.switch_cpus0.rename.SquashCycles        824546                       # Number of cycles rename is squashing
system.switch_cpus0.rename.IdleCycles         3658728                       # Number of cycles rename is idle
system.switch_cpus0.rename.BlockCycles         420091                       # Number of cycles rename is blocking
system.switch_cpus0.rename.serializeStallCycles       100016                       # count of cycles rename stalled for serializing inst
system.switch_cpus0.rename.RunCycles          3289485                       # Number of cycles rename is running
system.switch_cpus0.rename.UnblockCycles       286917                       # Number of cycles rename is unblocking
system.switch_cpus0.rename.RenamedInsts      19356057                       # Number of instructions processed by rename
system.switch_cpus0.rename.ROBFullEvents           41                       # Number of times rename has blocked due to ROB full
system.switch_cpus0.rename.IQFullEvents        153316                       # Number of times rename has blocked due to IQ full
system.switch_cpus0.rename.LSQFullEvents        82880                       # Number of times rename has blocked due to LSQ full
system.switch_cpus0.rename.FullRegisterEvents            1                       # Number of times there has been no free registers
system.switch_cpus0.rename.RenamedOperands     26835223                       # Number of destination operands rename has renamed
system.switch_cpus0.rename.RenameLookups     90169901                       # Number of register rename lookups that rename has made
system.switch_cpus0.rename.int_rename_lookups     90169901                       # Number of integer rename lookups
system.switch_cpus0.rename.CommittedMaps     16795127                       # Number of HB maps that are committed
system.switch_cpus0.rename.UndoneMaps        10040045                       # Number of HB maps that are undone due to squashing
system.switch_cpus0.rename.serializingInsts         3723                       # count of serializing insts renamed
system.switch_cpus0.rename.tempSerializingInsts         2009                       # count of temporary serializing insts renamed
system.switch_cpus0.rename.skidInsts           704458                       # count of insts added to the skid buffer
system.switch_cpus0.memDep0.insertedLoads      1896017                       # Number of loads inserted to the mem dependence unit.
system.switch_cpus0.memDep0.insertedStores      1018849                       # Number of stores inserted to the mem dependence unit.
system.switch_cpus0.memDep0.conflictingLoads        23379                       # Number of conflicting loads.
system.switch_cpus0.memDep0.conflictingStores       412987                       # Number of conflicting stores.
system.switch_cpus0.iq.iqInstsAdded          18041869                       # Number of instructions added to the IQ (excludes non-spec)
system.switch_cpus0.iq.iqNonSpecInstsAdded         3621                       # Number of non-speculative instructions added to the IQ
system.switch_cpus0.iq.iqInstsIssued         14612556                       # Number of instructions issued
system.switch_cpus0.iq.iqSquashedInstsIssued        23172                       # Number of squashed instructions issued
system.switch_cpus0.iq.iqSquashedInstsExamined      5710940                       # Number of squashed instructions iterated over during squash; mainly for profiling
system.switch_cpus0.iq.iqSquashedOperandsExamined     17429705                       # Number of squashed operands that are examined and possibly removed from graph
system.switch_cpus0.iq.iqSquashedNonSpecRemoved          369                       # Number of squashed non-spec instructions that were removed
system.switch_cpus0.iq.issued_per_cycle::samples      8579786                       # Number of insts issued each cycle
system.switch_cpus0.iq.issued_per_cycle::mean     1.703138                       # Number of insts issued each cycle
system.switch_cpus0.iq.issued_per_cycle::stdev     1.838722                       # Number of insts issued each cycle
system.switch_cpus0.iq.issued_per_cycle::underflows            0      0.00%      0.00% # Number of insts issued each cycle
system.switch_cpus0.iq.issued_per_cycle::0      3095408     36.08%     36.08% # Number of insts issued each cycle
system.switch_cpus0.iq.issued_per_cycle::1      1714439     19.98%     56.06% # Number of insts issued each cycle
system.switch_cpus0.iq.issued_per_cycle::2      1355476     15.80%     71.86% # Number of insts issued each cycle
system.switch_cpus0.iq.issued_per_cycle::3       818003      9.53%     81.39% # Number of insts issued each cycle
system.switch_cpus0.iq.issued_per_cycle::4       836204      9.75%     91.14% # Number of insts issued each cycle
system.switch_cpus0.iq.issued_per_cycle::5       379770      4.43%     95.57% # Number of insts issued each cycle
system.switch_cpus0.iq.issued_per_cycle::6       243785      2.84%     98.41% # Number of insts issued each cycle
system.switch_cpus0.iq.issued_per_cycle::7        66828      0.78%     99.19% # Number of insts issued each cycle
system.switch_cpus0.iq.issued_per_cycle::8        69873      0.81%    100.00% # Number of insts issued each cycle
system.switch_cpus0.iq.issued_per_cycle::overflows            0      0.00%    100.00% # Number of insts issued each cycle
system.switch_cpus0.iq.issued_per_cycle::min_value            0                       # Number of insts issued each cycle
system.switch_cpus0.iq.issued_per_cycle::max_value            8                       # Number of insts issued each cycle
system.switch_cpus0.iq.issued_per_cycle::total      8579786                       # Number of insts issued each cycle
system.switch_cpus0.iq.fu_full::No_OpClass            0      0.00%      0.00% # attempts to use FU when none available
system.switch_cpus0.iq.fu_full::IntAlu          63418     58.56%     58.56% # attempts to use FU when none available
system.switch_cpus0.iq.fu_full::IntMult             0      0.00%     58.56% # attempts to use FU when none available
system.switch_cpus0.iq.fu_full::IntDiv              0      0.00%     58.56% # attempts to use FU when none available
system.switch_cpus0.iq.fu_full::FloatAdd            0      0.00%     58.56% # attempts to use FU when none available
system.switch_cpus0.iq.fu_full::FloatCmp            0      0.00%     58.56% # attempts to use FU when none available
system.switch_cpus0.iq.fu_full::FloatCvt            0      0.00%     58.56% # attempts to use FU when none available
system.switch_cpus0.iq.fu_full::FloatMult            0      0.00%     58.56% # attempts to use FU when none available
system.switch_cpus0.iq.fu_full::FloatDiv            0      0.00%     58.56% # attempts to use FU when none available
system.switch_cpus0.iq.fu_full::FloatSqrt            0      0.00%     58.56% # attempts to use FU when none available
system.switch_cpus0.iq.fu_full::SimdAdd             0      0.00%     58.56% # attempts to use FU when none available
system.switch_cpus0.iq.fu_full::SimdAddAcc            0      0.00%     58.56% # attempts to use FU when none available
system.switch_cpus0.iq.fu_full::SimdAlu             0      0.00%     58.56% # attempts to use FU when none available
system.switch_cpus0.iq.fu_full::SimdCmp             0      0.00%     58.56% # attempts to use FU when none available
system.switch_cpus0.iq.fu_full::SimdCvt             0      0.00%     58.56% # attempts to use FU when none available
system.switch_cpus0.iq.fu_full::SimdMisc            0      0.00%     58.56% # attempts to use FU when none available
system.switch_cpus0.iq.fu_full::SimdMult            0      0.00%     58.56% # attempts to use FU when none available
system.switch_cpus0.iq.fu_full::SimdMultAcc            0      0.00%     58.56% # attempts to use FU when none available
system.switch_cpus0.iq.fu_full::SimdShift            0      0.00%     58.56% # attempts to use FU when none available
system.switch_cpus0.iq.fu_full::SimdShiftAcc            0      0.00%     58.56% # attempts to use FU when none available
system.switch_cpus0.iq.fu_full::SimdSqrt            0      0.00%     58.56% # attempts to use FU when none available
system.switch_cpus0.iq.fu_full::SimdFloatAdd            0      0.00%     58.56% # attempts to use FU when none available
system.switch_cpus0.iq.fu_full::SimdFloatAlu            0      0.00%     58.56% # attempts to use FU when none available
system.switch_cpus0.iq.fu_full::SimdFloatCmp            0      0.00%     58.56% # attempts to use FU when none available
system.switch_cpus0.iq.fu_full::SimdFloatCvt            0      0.00%     58.56% # attempts to use FU when none available
system.switch_cpus0.iq.fu_full::SimdFloatDiv            0      0.00%     58.56% # attempts to use FU when none available
system.switch_cpus0.iq.fu_full::SimdFloatMisc            0      0.00%     58.56% # attempts to use FU when none available
system.switch_cpus0.iq.fu_full::SimdFloatMult            0      0.00%     58.56% # attempts to use FU when none available
system.switch_cpus0.iq.fu_full::SimdFloatMultAcc            0      0.00%     58.56% # attempts to use FU when none available
system.switch_cpus0.iq.fu_full::SimdFloatSqrt            0      0.00%     58.56% # attempts to use FU when none available
system.switch_cpus0.iq.fu_full::MemRead         20276     18.72%     77.28% # attempts to use FU when none available
system.switch_cpus0.iq.fu_full::MemWrite        24606     22.72%    100.00% # attempts to use FU when none available
system.switch_cpus0.iq.fu_full::IprAccess            0      0.00%    100.00% # attempts to use FU when none available
system.switch_cpus0.iq.fu_full::InstPrefetch            0      0.00%    100.00% # attempts to use FU when none available
system.switch_cpus0.iq.FU_type_0::No_OpClass            0      0.00%      0.00% # Type of FU issued
system.switch_cpus0.iq.FU_type_0::IntAlu     12012249     82.20%     82.20% # Type of FU issued
system.switch_cpus0.iq.FU_type_0::IntMult       200516      1.37%     83.58% # Type of FU issued
system.switch_cpus0.iq.FU_type_0::IntDiv            0      0.00%     83.58% # Type of FU issued
system.switch_cpus0.iq.FU_type_0::FloatAdd            0      0.00%     83.58% # Type of FU issued
system.switch_cpus0.iq.FU_type_0::FloatCmp            0      0.00%     83.58% # Type of FU issued
system.switch_cpus0.iq.FU_type_0::FloatCvt            0      0.00%     83.58% # Type of FU issued
system.switch_cpus0.iq.FU_type_0::FloatMult            0      0.00%     83.58% # Type of FU issued
system.switch_cpus0.iq.FU_type_0::FloatDiv            0      0.00%     83.58% # Type of FU issued
system.switch_cpus0.iq.FU_type_0::FloatSqrt            0      0.00%     83.58% # Type of FU issued
system.switch_cpus0.iq.FU_type_0::SimdAdd            0      0.00%     83.58% # Type of FU issued
system.switch_cpus0.iq.FU_type_0::SimdAddAcc            0      0.00%     83.58% # Type of FU issued
system.switch_cpus0.iq.FU_type_0::SimdAlu            0      0.00%     83.58% # Type of FU issued
system.switch_cpus0.iq.FU_type_0::SimdCmp            0      0.00%     83.58% # Type of FU issued
system.switch_cpus0.iq.FU_type_0::SimdCvt            0      0.00%     83.58% # Type of FU issued
system.switch_cpus0.iq.FU_type_0::SimdMisc            0      0.00%     83.58% # Type of FU issued
system.switch_cpus0.iq.FU_type_0::SimdMult            0      0.00%     83.58% # Type of FU issued
system.switch_cpus0.iq.FU_type_0::SimdMultAcc            0      0.00%     83.58% # Type of FU issued
system.switch_cpus0.iq.FU_type_0::SimdShift            0      0.00%     83.58% # Type of FU issued
system.switch_cpus0.iq.FU_type_0::SimdShiftAcc            0      0.00%     83.58% # Type of FU issued
system.switch_cpus0.iq.FU_type_0::SimdSqrt            0      0.00%     83.58% # Type of FU issued
system.switch_cpus0.iq.FU_type_0::SimdFloatAdd            0      0.00%     83.58% # Type of FU issued
system.switch_cpus0.iq.FU_type_0::SimdFloatAlu            0      0.00%     83.58% # Type of FU issued
system.switch_cpus0.iq.FU_type_0::SimdFloatCmp            0      0.00%     83.58% # Type of FU issued
system.switch_cpus0.iq.FU_type_0::SimdFloatCvt            0      0.00%     83.58% # Type of FU issued
system.switch_cpus0.iq.FU_type_0::SimdFloatDiv            0      0.00%     83.58% # Type of FU issued
system.switch_cpus0.iq.FU_type_0::SimdFloatMisc         1594      0.01%     83.59% # Type of FU issued
system.switch_cpus0.iq.FU_type_0::SimdFloatMult            0      0.00%     83.59% # Type of FU issued
system.switch_cpus0.iq.FU_type_0::SimdFloatMultAcc            0      0.00%     83.59% # Type of FU issued
system.switch_cpus0.iq.FU_type_0::SimdFloatSqrt            0      0.00%     83.59% # Type of FU issued
system.switch_cpus0.iq.FU_type_0::MemRead      1548374     10.60%     94.18% # Type of FU issued
system.switch_cpus0.iq.FU_type_0::MemWrite       849823      5.82%    100.00% # Type of FU issued
system.switch_cpus0.iq.FU_type_0::IprAccess            0      0.00%    100.00% # Type of FU issued
system.switch_cpus0.iq.FU_type_0::InstPrefetch            0      0.00%    100.00% # Type of FU issued
system.switch_cpus0.iq.FU_type_0::total      14612556                       # Type of FU issued
system.switch_cpus0.iq.rate                  1.650585                       # Inst issue rate
system.switch_cpus0.iq.fu_busy_cnt             108300                       # FU busy when requested
system.switch_cpus0.iq.fu_busy_rate          0.007411                       # FU busy rate (busy events/executed inst)
system.switch_cpus0.iq.int_inst_queue_reads     37936368                       # Number of integer instruction queue reads
system.switch_cpus0.iq.int_inst_queue_writes     23756651                       # Number of integer instruction queue writes
system.switch_cpus0.iq.int_inst_queue_wakeup_accesses     14241125                       # Number of integer instruction queue wakeup accesses
system.switch_cpus0.iq.fp_inst_queue_reads            0                       # Number of floating instruction queue reads
system.switch_cpus0.iq.fp_inst_queue_writes            0                       # Number of floating instruction queue writes
system.switch_cpus0.iq.fp_inst_queue_wakeup_accesses            0                       # Number of floating instruction queue wakeup accesses
system.switch_cpus0.iq.int_alu_accesses      14720856                       # Number of integer alu accesses
system.switch_cpus0.iq.fp_alu_accesses              0                       # Number of floating point alu accesses
system.switch_cpus0.iew.lsq.thread0.forwLoads        45852                       # Number of loads that had data forwarded from stores
system.switch_cpus0.iew.lsq.thread0.invAddrLoads            0                       # Number of loads ignored due to an invalid address
system.switch_cpus0.iew.lsq.thread0.squashedLoads       663654                       # Number of loads squashed
system.switch_cpus0.iew.lsq.thread0.ignoredResponses          442                       # Number of memory responses ignored because the instruction is squashed
system.switch_cpus0.iew.lsq.thread0.memOrderViolation          228                       # Number of memory ordering violations
system.switch_cpus0.iew.lsq.thread0.squashedStores       236880                       # Number of stores squashed
system.switch_cpus0.iew.lsq.thread0.invAddrSwpfs            0                       # Number of software prefetches ignored due to an invalid address
system.switch_cpus0.iew.lsq.thread0.blockedLoads            0                       # Number of blocked loads due to partial load-store forwarding
system.switch_cpus0.iew.lsq.thread0.rescheduledLoads           76                       # Number of loads that were rescheduled
system.switch_cpus0.iew.lsq.thread0.cacheBlocked            0                       # Number of times an access to memory failed due to the cache being blocked
system.switch_cpus0.iew.iewIdleCycles               0                       # Number of cycles IEW is idle
system.switch_cpus0.iew.iewSquashCycles        824546                       # Number of cycles IEW is squashing
system.switch_cpus0.iew.iewBlockCycles         331780                       # Number of cycles IEW is blocking
system.switch_cpus0.iew.iewUnblockCycles        14013                       # Number of cycles IEW is unblocking
system.switch_cpus0.iew.iewDispatchedInsts     18045491                       # Number of instructions dispatched to IQ
system.switch_cpus0.iew.iewDispSquashedInsts        79577                       # Number of squashed instructions skipped by dispatch
system.switch_cpus0.iew.iewDispLoadInsts      1896017                       # Number of dispatched load instructions
system.switch_cpus0.iew.iewDispStoreInsts      1018849                       # Number of dispatched store instructions
system.switch_cpus0.iew.iewDispNonSpecInsts         1999                       # Number of dispatched non-speculative instructions
system.switch_cpus0.iew.iewIQFullEvents          9527                       # Number of times the IQ has become full, causing a stall
system.switch_cpus0.iew.iewLSQFullEvents         1440                       # Number of times the LSQ has become full, causing a stall
system.switch_cpus0.iew.memOrderViolationEvents          228                       # Number of memory order violations
system.switch_cpus0.iew.predictedTakenIncorrect       122856                       # Number of branches that were predicted taken incorrectly
system.switch_cpus0.iew.predictedNotTakenIncorrect       115092                       # Number of branches that were predicted not taken incorrectly
system.switch_cpus0.iew.branchMispredicts       237948                       # Number of branch mispredicts detected at execute
system.switch_cpus0.iew.iewExecutedInsts     14372228                       # Number of executed instructions
system.switch_cpus0.iew.iewExecLoadInsts      1470074                       # Number of load instructions executed
system.switch_cpus0.iew.iewExecSquashedInsts       240326                       # Number of squashed instructions skipped in execute
system.switch_cpus0.iew.exec_swp                    0                       # number of swp insts executed
system.switch_cpus0.iew.exec_nop                    1                       # number of nop insts executed
system.switch_cpus0.iew.exec_refs             2305799                       # number of memory reference insts executed
system.switch_cpus0.iew.exec_branches         2020186                       # Number of branches executed
system.switch_cpus0.iew.exec_stores            835725                       # Number of stores executed
system.switch_cpus0.iew.exec_rate            1.623439                       # Inst execution rate
system.switch_cpus0.iew.wb_sent              14251736                       # cumulative count of insts sent to commit
system.switch_cpus0.iew.wb_count             14241125                       # cumulative count of insts written-back
system.switch_cpus0.iew.wb_producers          9201587                       # num instructions producing a value
system.switch_cpus0.iew.wb_consumers         24883664                       # num instructions consuming a value
system.switch_cpus0.iew.wb_penalized                0                       # number of instrctions required to write to 'other' IQ
system.switch_cpus0.iew.wb_rate              1.608630                       # insts written-back per cycle
system.switch_cpus0.iew.wb_fanout            0.369784                       # average fanout of values written-back
system.switch_cpus0.iew.wb_penalized_rate            0                       # fraction of instructions written-back that wrote to 'other' IQ
system.switch_cpus0.commit.commitCommittedInsts     10000000                       # The number of committed instructions
system.switch_cpus0.commit.commitCommittedOps     12239191                       # The number of committed instructions
system.switch_cpus0.commit.commitSquashedInsts      5807129                       # The number of squashed insts skipped by commit
system.switch_cpus0.commit.commitNonSpecStalls         3252                       # The number of times commit has been forced to stall to communicate backwards
system.switch_cpus0.commit.branchMispredicts       205650                       # The number of times a branch was mispredicted
system.switch_cpus0.commit.committed_per_cycle::samples      7755240                       # Number of insts commited each cycle
system.switch_cpus0.commit.committed_per_cycle::mean     1.578183                       # Number of insts commited each cycle
system.switch_cpus0.commit.committed_per_cycle::stdev     2.108032                       # Number of insts commited each cycle
system.switch_cpus0.commit.committed_per_cycle::underflows            0      0.00%      0.00% # Number of insts commited each cycle
system.switch_cpus0.commit.committed_per_cycle::0      3162200     40.78%     40.78% # Number of insts commited each cycle
system.switch_cpus0.commit.committed_per_cycle::1      2050982     26.45%     67.22% # Number of insts commited each cycle
system.switch_cpus0.commit.committed_per_cycle::2       851631     10.98%     78.20% # Number of insts commited each cycle
system.switch_cpus0.commit.committed_per_cycle::3       432745      5.58%     83.78% # Number of insts commited each cycle
system.switch_cpus0.commit.committed_per_cycle::4       448527      5.78%     89.57% # Number of insts commited each cycle
system.switch_cpus0.commit.committed_per_cycle::5       227427      2.93%     92.50% # Number of insts commited each cycle
system.switch_cpus0.commit.committed_per_cycle::6       154413      1.99%     94.49% # Number of insts commited each cycle
system.switch_cpus0.commit.committed_per_cycle::7        89529      1.15%     95.64% # Number of insts commited each cycle
system.switch_cpus0.commit.committed_per_cycle::8       337786      4.36%    100.00% # Number of insts commited each cycle
system.switch_cpus0.commit.committed_per_cycle::overflows            0      0.00%    100.00% # Number of insts commited each cycle
system.switch_cpus0.commit.committed_per_cycle::min_value            0                       # Number of insts commited each cycle
system.switch_cpus0.commit.committed_per_cycle::max_value            8                       # Number of insts commited each cycle
system.switch_cpus0.commit.committed_per_cycle::total      7755240                       # Number of insts commited each cycle
system.switch_cpus0.commit.committedInsts     10000000                       # Number of instructions committed
system.switch_cpus0.commit.committedOps      12239191                       # Number of ops (including micro ops) committed
system.switch_cpus0.commit.swp_count                0                       # Number of s/w prefetches committed
system.switch_cpus0.commit.refs               2014327                       # Number of memory references committed
system.switch_cpus0.commit.loads              1232358                       # Number of loads committed
system.switch_cpus0.commit.membars               1618                       # Number of memory barriers committed
system.switch_cpus0.commit.branches           1757708                       # Number of branches committed
system.switch_cpus0.commit.fp_insts                 0                       # Number of committed floating point instructions.
system.switch_cpus0.commit.int_insts         11009335                       # Number of committed integer instructions.
system.switch_cpus0.commit.function_calls       240449                       # Number of function calls committed.
system.switch_cpus0.commit.bw_lim_events       337786                       # number cycles where commit BW limit reached
system.switch_cpus0.commit.bw_limited               0                       # number of insts not committed due to BW limits
system.switch_cpus0.rob.rob_reads            25463618                       # The number of ROB reads
system.switch_cpus0.rob.rob_writes           36917746                       # The number of ROB writes
system.switch_cpus0.timesIdled                   4162                       # Number of times that the entire CPU went into an idle state and unscheduled itself
system.switch_cpus0.idleCycles                 273168                       # Total number of cycles that the CPU has spent unscheduled due to idling
system.switch_cpus0.committedInsts           10000000                       # Number of Instructions Simulated
system.switch_cpus0.committedOps             12239191                       # Number of Ops (including micro ops) Simulated
system.switch_cpus0.committedInsts_total     10000000                       # Number of Instructions Simulated
system.switch_cpus0.cpi                      0.885295                       # CPI: Cycles Per Instruction
system.switch_cpus0.cpi_total                0.885295                       # CPI: Total CPI of All Threads
system.switch_cpus0.ipc                      1.129566                       # IPC: Instructions Per Cycle
system.switch_cpus0.ipc_total                1.129566                       # IPC: Total IPC of All Threads
system.switch_cpus0.int_regfile_reads        64974567                       # number of integer regfile reads
system.switch_cpus0.int_regfile_writes       19481178                       # number of integer regfile writes
system.switch_cpus0.misc_regfile_reads       18740883                       # number of misc regfile reads
system.switch_cpus0.misc_regfile_writes          3244                       # number of misc regfile writes
system.switch_cpus1.dtb.inst_hits                   0                       # ITB inst hits
system.switch_cpus1.dtb.inst_misses                 0                       # ITB inst misses
system.switch_cpus1.dtb.read_hits                   0                       # DTB read hits
system.switch_cpus1.dtb.read_misses                 0                       # DTB read misses
system.switch_cpus1.dtb.write_hits                  0                       # DTB write hits
system.switch_cpus1.dtb.write_misses                0                       # DTB write misses
system.switch_cpus1.dtb.flush_tlb                   0                       # Number of times complete TLB was flushed
system.switch_cpus1.dtb.flush_tlb_mva               0                       # Number of times TLB was flushed by MVA
system.switch_cpus1.dtb.flush_tlb_mva_asid            0                       # Number of times TLB was flushed by MVA & ASID
system.switch_cpus1.dtb.flush_tlb_asid              0                       # Number of times TLB was flushed by ASID
system.switch_cpus1.dtb.flush_entries               0                       # Number of entries that have been flushed from TLB
system.switch_cpus1.dtb.align_faults                0                       # Number of TLB faults due to alignment restrictions
system.switch_cpus1.dtb.prefetch_faults             0                       # Number of TLB faults due to prefetch
system.switch_cpus1.dtb.domain_faults               0                       # Number of TLB faults due to domain restrictions
system.switch_cpus1.dtb.perms_faults                0                       # Number of TLB faults due to permissions restrictions
system.switch_cpus1.dtb.read_accesses               0                       # DTB read accesses
system.switch_cpus1.dtb.write_accesses              0                       # DTB write accesses
system.switch_cpus1.dtb.inst_accesses               0                       # ITB inst accesses
system.switch_cpus1.dtb.hits                        0                       # DTB hits
system.switch_cpus1.dtb.misses                      0                       # DTB misses
system.switch_cpus1.dtb.accesses                    0                       # DTB accesses
system.switch_cpus1.itb.inst_hits                   0                       # ITB inst hits
system.switch_cpus1.itb.inst_misses                 0                       # ITB inst misses
system.switch_cpus1.itb.read_hits                   0                       # DTB read hits
system.switch_cpus1.itb.read_misses                 0                       # DTB read misses
system.switch_cpus1.itb.write_hits                  0                       # DTB write hits
system.switch_cpus1.itb.write_misses                0                       # DTB write misses
system.switch_cpus1.itb.flush_tlb                   0                       # Number of times complete TLB was flushed
system.switch_cpus1.itb.flush_tlb_mva               0                       # Number of times TLB was flushed by MVA
system.switch_cpus1.itb.flush_tlb_mva_asid            0                       # Number of times TLB was flushed by MVA & ASID
system.switch_cpus1.itb.flush_tlb_asid              0                       # Number of times TLB was flushed by ASID
system.switch_cpus1.itb.flush_entries               0                       # Number of entries that have been flushed from TLB
system.switch_cpus1.itb.align_faults                0                       # Number of TLB faults due to alignment restrictions
system.switch_cpus1.itb.prefetch_faults             0                       # Number of TLB faults due to prefetch
system.switch_cpus1.itb.domain_faults               0                       # Number of TLB faults due to domain restrictions
system.switch_cpus1.itb.perms_faults                0                       # Number of TLB faults due to permissions restrictions
system.switch_cpus1.itb.read_accesses               0                       # DTB read accesses
system.switch_cpus1.itb.write_accesses              0                       # DTB write accesses
system.switch_cpus1.itb.inst_accesses               0                       # ITB inst accesses
system.switch_cpus1.itb.hits                        0                       # DTB hits
system.switch_cpus1.itb.misses                      0                       # DTB misses
system.switch_cpus1.itb.accesses                    0                       # DTB accesses
system.cpu1.workload.num_syscalls                  13                       # Number of system calls
system.switch_cpus1.numCycles                 8852954                       # number of cpu cycles simulated
system.switch_cpus1.numWorkItemsStarted             0                       # number of work items this cpu started
system.switch_cpus1.numWorkItemsCompleted            0                       # number of work items this cpu completed
system.switch_cpus1.BPredUnit.lookups         3109501                       # Number of BP lookups
system.switch_cpus1.BPredUnit.condPredicted      2523849                       # Number of conditional branches predicted
system.switch_cpus1.BPredUnit.condIncorrect       212239                       # Number of conditional branches incorrect
system.switch_cpus1.BPredUnit.BTBLookups      1300754                       # Number of BTB lookups
system.switch_cpus1.BPredUnit.BTBHits         1220905                       # Number of BTB hits
system.switch_cpus1.BPredUnit.BTBCorrect            0                       # Number of correct BTB predictions (this stat may not work properly.
system.switch_cpus1.BPredUnit.usedRAS          331023                       # Number of times the RAS was used to get a target.
system.switch_cpus1.BPredUnit.RASInCorrect         9145                       # Number of incorrect RAS predictions.
system.switch_cpus1.fetch.icacheStallCycles      3258046                       # Number of cycles fetch is stalled on an Icache miss
system.switch_cpus1.fetch.Insts              17147517                       # Number of instructions fetch has processed
system.switch_cpus1.fetch.Branches            3109501                       # Number of branches that fetch encountered
system.switch_cpus1.fetch.predictedBranches      1551928                       # Number of branches that fetch has predicted taken
system.switch_cpus1.fetch.Cycles              3618532                       # Number of cycles fetch has run and was not squashing or blocked
system.switch_cpus1.fetch.SquashCycles        1116095                       # Number of cycles fetch has spent squashing
system.switch_cpus1.fetch.BlockedCycles        696517                       # Number of cycles fetch has spent blocked
system.switch_cpus1.fetch.MiscStallCycles            1                       # Number of cycles fetch has spent waiting on interrupts, or bad addresses, or out of MSHRs
system.switch_cpus1.fetch.PendingTrapStallCycles           30                       # Number of stall cycles due to pending traps
system.switch_cpus1.fetch.IcacheWaitRetryStallCycles           11                       # Number of stall cycles due to full MSHR
system.switch_cpus1.fetch.CacheLines          1602840                       # Number of cache lines fetched
system.switch_cpus1.fetch.IcacheSquashes        96548                       # Number of outstanding Icache misses that were squashed
system.switch_cpus1.fetch.rateDist::samples      8472083                       # Number of instructions fetched each cycle (Total)
system.switch_cpus1.fetch.rateDist::mean     2.494562                       # Number of instructions fetched each cycle (Total)
system.switch_cpus1.fetch.rateDist::stdev     3.316079                       # Number of instructions fetched each cycle (Total)
system.switch_cpus1.fetch.rateDist::underflows            0      0.00%      0.00% # Number of instructions fetched each cycle (Total)
system.switch_cpus1.fetch.rateDist::0         4853551     57.29%     57.29% # Number of instructions fetched each cycle (Total)
system.switch_cpus1.fetch.rateDist::1          226859      2.68%     59.97% # Number of instructions fetched each cycle (Total)
system.switch_cpus1.fetch.rateDist::2          258104      3.05%     63.01% # Number of instructions fetched each cycle (Total)
system.switch_cpus1.fetch.rateDist::3          469905      5.55%     68.56% # Number of instructions fetched each cycle (Total)
system.switch_cpus1.fetch.rateDist::4          210487      2.48%     71.04% # Number of instructions fetched each cycle (Total)
system.switch_cpus1.fetch.rateDist::5          325994      3.85%     74.89% # Number of instructions fetched each cycle (Total)
system.switch_cpus1.fetch.rateDist::6          178624      2.11%     77.00% # Number of instructions fetched each cycle (Total)
system.switch_cpus1.fetch.rateDist::7          150778      1.78%     78.78% # Number of instructions fetched each cycle (Total)
system.switch_cpus1.fetch.rateDist::8         1797781     21.22%    100.00% # Number of instructions fetched each cycle (Total)
system.switch_cpus1.fetch.rateDist::overflows            0      0.00%    100.00% # Number of instructions fetched each cycle (Total)
system.switch_cpus1.fetch.rateDist::min_value            0                       # Number of instructions fetched each cycle (Total)
system.switch_cpus1.fetch.rateDist::max_value            8                       # Number of instructions fetched each cycle (Total)
system.switch_cpus1.fetch.rateDist::total      8472083                       # Number of instructions fetched each cycle (Total)
system.switch_cpus1.fetch.branchRate         0.351239                       # Number of branch fetches per cycle
system.switch_cpus1.fetch.rate               1.936926                       # Number of inst fetches per cycle
system.switch_cpus1.decode.IdleCycles         3437801                       # Number of cycles decode is idle
system.switch_cpus1.decode.BlockedCycles       649481                       # Number of cycles decode is blocked
system.switch_cpus1.decode.RunCycles          3452855                       # Number of cycles decode is running
system.switch_cpus1.decode.UnblockCycles        35032                       # Number of cycles decode is unblocking
system.switch_cpus1.decode.SquashCycles        896911                       # Number of cycles decode is squashing
system.switch_cpus1.decode.BranchResolved       527563                       # Number of times decode resolved a branch
system.switch_cpus1.decode.BranchMispred         2865                       # Number of times decode detected a branch misprediction
system.switch_cpus1.decode.DecodedInsts      20400241                       # Number of instructions handled by decode
system.switch_cpus1.decode.SquashedInsts         4809                       # Number of squashed instructions handled by decode
system.switch_cpus1.rename.SquashCycles        896911                       # Number of cycles rename is squashing
system.switch_cpus1.rename.IdleCycles         3625228                       # Number of cycles rename is idle
system.switch_cpus1.rename.BlockCycles         144721                       # Number of cycles rename is blocking
system.switch_cpus1.rename.serializeStallCycles       247858                       # count of cycles rename stalled for serializing inst
system.switch_cpus1.rename.RunCycles          3296211                       # Number of cycles rename is running
system.switch_cpus1.rename.UnblockCycles       261147                       # Number of cycles rename is unblocking
system.switch_cpus1.rename.RenamedInsts      19600398                       # Number of instructions processed by rename
system.switch_cpus1.rename.ROBFullEvents         3747                       # Number of times rename has blocked due to ROB full
system.switch_cpus1.rename.IQFullEvents        140312                       # Number of times rename has blocked due to IQ full
system.switch_cpus1.rename.LSQFullEvents        76209                       # Number of times rename has blocked due to LSQ full
system.switch_cpus1.rename.FullRegisterEvents          857                       # Number of times there has been no free registers
system.switch_cpus1.rename.RenamedOperands     27462036                       # Number of destination operands rename has renamed
system.switch_cpus1.rename.RenameLookups     91305696                       # Number of register rename lookups that rename has made
system.switch_cpus1.rename.int_rename_lookups     91305696                       # Number of integer rename lookups
system.switch_cpus1.rename.CommittedMaps     16871416                       # Number of HB maps that are committed
system.switch_cpus1.rename.UndoneMaps        10590591                       # Number of HB maps that are undone due to squashing
system.switch_cpus1.rename.serializingInsts         4226                       # count of serializing insts renamed
system.switch_cpus1.rename.tempSerializingInsts         2588                       # count of temporary serializing insts renamed
system.switch_cpus1.rename.skidInsts           671784                       # count of insts added to the skid buffer
system.switch_cpus1.memDep0.insertedLoads      1826846                       # Number of loads inserted to the mem dependence unit.
system.switch_cpus1.memDep0.insertedStores       933602                       # Number of stores inserted to the mem dependence unit.
system.switch_cpus1.memDep0.conflictingLoads        13636                       # Number of conflicting loads.
system.switch_cpus1.memDep0.conflictingStores       336846                       # Number of conflicting stores.
system.switch_cpus1.iq.iqInstsAdded          18414520                       # Number of instructions added to the IQ (excludes non-spec)
system.switch_cpus1.iq.iqNonSpecInstsAdded         4237                       # Number of non-speculative instructions added to the IQ
system.switch_cpus1.iq.iqInstsIssued         14814089                       # Number of instructions issued
system.switch_cpus1.iq.iqSquashedInstsIssued        29338                       # Number of squashed instructions issued
system.switch_cpus1.iq.iqSquashedInstsExamined      6225717                       # Number of squashed instructions iterated over during squash; mainly for profiling
system.switch_cpus1.iq.iqSquashedOperandsExamined     18671171                       # Number of squashed operands that are examined and possibly removed from graph
system.switch_cpus1.iq.iqSquashedNonSpecRemoved          901                       # Number of squashed non-spec instructions that were removed
system.switch_cpus1.iq.issued_per_cycle::samples      8472083                       # Number of insts issued each cycle
system.switch_cpus1.iq.issued_per_cycle::mean     1.748577                       # Number of insts issued each cycle
system.switch_cpus1.iq.issued_per_cycle::stdev     1.916648                       # Number of insts issued each cycle
system.switch_cpus1.iq.issued_per_cycle::underflows            0      0.00%      0.00% # Number of insts issued each cycle
system.switch_cpus1.iq.issued_per_cycle::0      3041468     35.90%     35.90% # Number of insts issued each cycle
system.switch_cpus1.iq.issued_per_cycle::1      1761901     20.80%     56.70% # Number of insts issued each cycle
system.switch_cpus1.iq.issued_per_cycle::2      1225956     14.47%     71.17% # Number of insts issued each cycle
system.switch_cpus1.iq.issued_per_cycle::3       841378      9.93%     81.10% # Number of insts issued each cycle
system.switch_cpus1.iq.issued_per_cycle::4       692484      8.17%     89.27% # Number of insts issued each cycle
system.switch_cpus1.iq.issued_per_cycle::5       378009      4.46%     93.73% # Number of insts issued each cycle
system.switch_cpus1.iq.issued_per_cycle::6       372626      4.40%     98.13% # Number of insts issued each cycle
system.switch_cpus1.iq.issued_per_cycle::7        85683      1.01%     99.14% # Number of insts issued each cycle
system.switch_cpus1.iq.issued_per_cycle::8        72578      0.86%    100.00% # Number of insts issued each cycle
system.switch_cpus1.iq.issued_per_cycle::overflows            0      0.00%    100.00% # Number of insts issued each cycle
system.switch_cpus1.iq.issued_per_cycle::min_value            0                       # Number of insts issued each cycle
system.switch_cpus1.iq.issued_per_cycle::max_value            8                       # Number of insts issued each cycle
system.switch_cpus1.iq.issued_per_cycle::total      8472083                       # Number of insts issued each cycle
system.switch_cpus1.iq.fu_full::No_OpClass            0      0.00%      0.00% # attempts to use FU when none available
system.switch_cpus1.iq.fu_full::IntAlu         107328     77.07%     77.07% # attempts to use FU when none available
system.switch_cpus1.iq.fu_full::IntMult             1      0.00%     77.07% # attempts to use FU when none available
system.switch_cpus1.iq.fu_full::IntDiv              0      0.00%     77.07% # attempts to use FU when none available
system.switch_cpus1.iq.fu_full::FloatAdd            0      0.00%     77.07% # attempts to use FU when none available
system.switch_cpus1.iq.fu_full::FloatCmp            0      0.00%     77.07% # attempts to use FU when none available
system.switch_cpus1.iq.fu_full::FloatCvt            0      0.00%     77.07% # attempts to use FU when none available
system.switch_cpus1.iq.fu_full::FloatMult            0      0.00%     77.07% # attempts to use FU when none available
system.switch_cpus1.iq.fu_full::FloatDiv            0      0.00%     77.07% # attempts to use FU when none available
system.switch_cpus1.iq.fu_full::FloatSqrt            0      0.00%     77.07% # attempts to use FU when none available
system.switch_cpus1.iq.fu_full::SimdAdd             0      0.00%     77.07% # attempts to use FU when none available
system.switch_cpus1.iq.fu_full::SimdAddAcc            0      0.00%     77.07% # attempts to use FU when none available
system.switch_cpus1.iq.fu_full::SimdAlu             0      0.00%     77.07% # attempts to use FU when none available
system.switch_cpus1.iq.fu_full::SimdCmp             0      0.00%     77.07% # attempts to use FU when none available
system.switch_cpus1.iq.fu_full::SimdCvt             0      0.00%     77.07% # attempts to use FU when none available
system.switch_cpus1.iq.fu_full::SimdMisc            0      0.00%     77.07% # attempts to use FU when none available
system.switch_cpus1.iq.fu_full::SimdMult            0      0.00%     77.07% # attempts to use FU when none available
system.switch_cpus1.iq.fu_full::SimdMultAcc            0      0.00%     77.07% # attempts to use FU when none available
system.switch_cpus1.iq.fu_full::SimdShift            0      0.00%     77.07% # attempts to use FU when none available
system.switch_cpus1.iq.fu_full::SimdShiftAcc            0      0.00%     77.07% # attempts to use FU when none available
system.switch_cpus1.iq.fu_full::SimdSqrt            0      0.00%     77.07% # attempts to use FU when none available
system.switch_cpus1.iq.fu_full::SimdFloatAdd            0      0.00%     77.07% # attempts to use FU when none available
system.switch_cpus1.iq.fu_full::SimdFloatAlu            0      0.00%     77.07% # attempts to use FU when none available
system.switch_cpus1.iq.fu_full::SimdFloatCmp            0      0.00%     77.07% # attempts to use FU when none available
system.switch_cpus1.iq.fu_full::SimdFloatCvt            0      0.00%     77.07% # attempts to use FU when none available
system.switch_cpus1.iq.fu_full::SimdFloatDiv            0      0.00%     77.07% # attempts to use FU when none available
system.switch_cpus1.iq.fu_full::SimdFloatMisc            0      0.00%     77.07% # attempts to use FU when none available
system.switch_cpus1.iq.fu_full::SimdFloatMult            0      0.00%     77.07% # attempts to use FU when none available
system.switch_cpus1.iq.fu_full::SimdFloatMultAcc            0      0.00%     77.07% # attempts to use FU when none available
system.switch_cpus1.iq.fu_full::SimdFloatSqrt            0      0.00%     77.07% # attempts to use FU when none available
system.switch_cpus1.iq.fu_full::MemRead         14864     10.67%     87.74% # attempts to use FU when none available
system.switch_cpus1.iq.fu_full::MemWrite        17069     12.26%    100.00% # attempts to use FU when none available
system.switch_cpus1.iq.fu_full::IprAccess            0      0.00%    100.00% # attempts to use FU when none available
system.switch_cpus1.iq.fu_full::InstPrefetch            0      0.00%    100.00% # attempts to use FU when none available
system.switch_cpus1.iq.FU_type_0::No_OpClass            0      0.00%      0.00% # Type of FU issued
system.switch_cpus1.iq.FU_type_0::IntAlu     12352342     83.38%     83.38% # Type of FU issued
system.switch_cpus1.iq.FU_type_0::IntMult       209526      1.41%     84.80% # Type of FU issued
system.switch_cpus1.iq.FU_type_0::IntDiv            0      0.00%     84.80% # Type of FU issued
system.switch_cpus1.iq.FU_type_0::FloatAdd            0      0.00%     84.80% # Type of FU issued
system.switch_cpus1.iq.FU_type_0::FloatCmp            0      0.00%     84.80% # Type of FU issued
system.switch_cpus1.iq.FU_type_0::FloatCvt            0      0.00%     84.80% # Type of FU issued
system.switch_cpus1.iq.FU_type_0::FloatMult            0      0.00%     84.80% # Type of FU issued
system.switch_cpus1.iq.FU_type_0::FloatDiv            0      0.00%     84.80% # Type of FU issued
system.switch_cpus1.iq.FU_type_0::FloatSqrt            0      0.00%     84.80% # Type of FU issued
system.switch_cpus1.iq.FU_type_0::SimdAdd            0      0.00%     84.80% # Type of FU issued
system.switch_cpus1.iq.FU_type_0::SimdAddAcc            0      0.00%     84.80% # Type of FU issued
system.switch_cpus1.iq.FU_type_0::SimdAlu            0      0.00%     84.80% # Type of FU issued
system.switch_cpus1.iq.FU_type_0::SimdCmp            0      0.00%     84.80% # Type of FU issued
system.switch_cpus1.iq.FU_type_0::SimdCvt            0      0.00%     84.80% # Type of FU issued
system.switch_cpus1.iq.FU_type_0::SimdMisc            0      0.00%     84.80% # Type of FU issued
system.switch_cpus1.iq.FU_type_0::SimdMult            0      0.00%     84.80% # Type of FU issued
system.switch_cpus1.iq.FU_type_0::SimdMultAcc            0      0.00%     84.80% # Type of FU issued
system.switch_cpus1.iq.FU_type_0::SimdShift            0      0.00%     84.80% # Type of FU issued
system.switch_cpus1.iq.FU_type_0::SimdShiftAcc            0      0.00%     84.80% # Type of FU issued
system.switch_cpus1.iq.FU_type_0::SimdSqrt            0      0.00%     84.80% # Type of FU issued
system.switch_cpus1.iq.FU_type_0::SimdFloatAdd            0      0.00%     84.80% # Type of FU issued
system.switch_cpus1.iq.FU_type_0::SimdFloatAlu            0      0.00%     84.80% # Type of FU issued
system.switch_cpus1.iq.FU_type_0::SimdFloatCmp            0      0.00%     84.80% # Type of FU issued
system.switch_cpus1.iq.FU_type_0::SimdFloatCvt            0      0.00%     84.80% # Type of FU issued
system.switch_cpus1.iq.FU_type_0::SimdFloatDiv            0      0.00%     84.80% # Type of FU issued
system.switch_cpus1.iq.FU_type_0::SimdFloatMisc         1632      0.01%     84.81% # Type of FU issued
system.switch_cpus1.iq.FU_type_0::SimdFloatMult            0      0.00%     84.81% # Type of FU issued
system.switch_cpus1.iq.FU_type_0::SimdFloatMultAcc            0      0.00%     84.81% # Type of FU issued
system.switch_cpus1.iq.FU_type_0::SimdFloatSqrt            0      0.00%     84.81% # Type of FU issued
system.switch_cpus1.iq.FU_type_0::MemRead      1478125      9.98%     94.79% # Type of FU issued
system.switch_cpus1.iq.FU_type_0::MemWrite       772464      5.21%    100.00% # Type of FU issued
system.switch_cpus1.iq.FU_type_0::IprAccess            0      0.00%    100.00% # Type of FU issued
system.switch_cpus1.iq.FU_type_0::InstPrefetch            0      0.00%    100.00% # Type of FU issued
system.switch_cpus1.iq.FU_type_0::total      14814089                       # Type of FU issued
system.switch_cpus1.iq.rate                  1.673350                       # Inst issue rate
system.switch_cpus1.iq.fu_busy_cnt             139262                       # FU busy when requested
system.switch_cpus1.iq.fu_busy_rate          0.009401                       # FU busy rate (busy events/executed inst)
system.switch_cpus1.iq.int_inst_queue_reads     38268857                       # Number of integer instruction queue reads
system.switch_cpus1.iq.int_inst_queue_writes     24644618                       # Number of integer instruction queue writes
system.switch_cpus1.iq.int_inst_queue_wakeup_accesses     14386352                       # Number of integer instruction queue wakeup accesses
system.switch_cpus1.iq.fp_inst_queue_reads            0                       # Number of floating instruction queue reads
system.switch_cpus1.iq.fp_inst_queue_writes            0                       # Number of floating instruction queue writes
system.switch_cpus1.iq.fp_inst_queue_wakeup_accesses            0                       # Number of floating instruction queue wakeup accesses
system.switch_cpus1.iq.int_alu_accesses      14953351                       # Number of integer alu accesses
system.switch_cpus1.iq.fp_alu_accesses              0                       # Number of floating point alu accesses
system.switch_cpus1.iew.lsq.thread0.forwLoads        28790                       # Number of loads that had data forwarded from stores
system.switch_cpus1.iew.lsq.thread0.invAddrLoads            0                       # Number of loads ignored due to an invalid address
system.switch_cpus1.iew.lsq.thread0.squashedLoads       713940                       # Number of loads squashed
system.switch_cpus1.iew.lsq.thread0.ignoredResponses          249                       # Number of memory responses ignored because the instruction is squashed
system.switch_cpus1.iew.lsq.thread0.memOrderViolation          151                       # Number of memory ordering violations
system.switch_cpus1.iew.lsq.thread0.squashedStores       236171                       # Number of stores squashed
system.switch_cpus1.iew.lsq.thread0.invAddrSwpfs            0                       # Number of software prefetches ignored due to an invalid address
system.switch_cpus1.iew.lsq.thread0.blockedLoads            0                       # Number of blocked loads due to partial load-store forwarding
system.switch_cpus1.iew.lsq.thread0.rescheduledLoads            0                       # Number of loads that were rescheduled
system.switch_cpus1.iew.lsq.thread0.cacheBlocked            0                       # Number of times an access to memory failed due to the cache being blocked
system.switch_cpus1.iew.iewIdleCycles               0                       # Number of cycles IEW is idle
system.switch_cpus1.iew.iewSquashCycles        896911                       # Number of cycles IEW is squashing
system.switch_cpus1.iew.iewBlockCycles          60957                       # Number of cycles IEW is blocking
system.switch_cpus1.iew.iewUnblockCycles         8787                       # Number of cycles IEW is unblocking
system.switch_cpus1.iew.iewDispatchedInsts     18418760                       # Number of instructions dispatched to IQ
system.switch_cpus1.iew.iewDispSquashedInsts        64881                       # Number of squashed instructions skipped by dispatch
system.switch_cpus1.iew.iewDispLoadInsts      1826846                       # Number of dispatched load instructions
system.switch_cpus1.iew.iewDispStoreInsts       933602                       # Number of dispatched store instructions
system.switch_cpus1.iew.iewDispNonSpecInsts         2572                       # Number of dispatched non-speculative instructions
system.switch_cpus1.iew.iewIQFullEvents          6433                       # Number of times the IQ has become full, causing a stall
system.switch_cpus1.iew.iewLSQFullEvents           19                       # Number of times the LSQ has become full, causing a stall
system.switch_cpus1.iew.memOrderViolationEvents          151                       # Number of memory order violations
system.switch_cpus1.iew.predictedTakenIncorrect       125740                       # Number of branches that were predicted taken incorrectly
system.switch_cpus1.iew.predictedNotTakenIncorrect       121528                       # Number of branches that were predicted not taken incorrectly
system.switch_cpus1.iew.branchMispredicts       247268                       # Number of branch mispredicts detected at execute
system.switch_cpus1.iew.iewExecutedInsts     14535428                       # Number of executed instructions
system.switch_cpus1.iew.iewExecLoadInsts      1378123                       # Number of load instructions executed
system.switch_cpus1.iew.iewExecSquashedInsts       278657                       # Number of squashed instructions skipped in execute
system.switch_cpus1.iew.exec_swp                    0                       # number of swp insts executed
system.switch_cpus1.iew.exec_nop                    3                       # number of nop insts executed
system.switch_cpus1.iew.exec_refs             2122308                       # number of memory reference insts executed
system.switch_cpus1.iew.exec_branches         2057905                       # Number of branches executed
system.switch_cpus1.iew.exec_stores            744185                       # Number of stores executed
system.switch_cpus1.iew.exec_rate            1.641873                       # Inst execution rate
system.switch_cpus1.iew.wb_sent              14397691                       # cumulative count of insts sent to commit
system.switch_cpus1.iew.wb_count             14386352                       # cumulative count of insts written-back
system.switch_cpus1.iew.wb_producers          9414864                       # num instructions producing a value
system.switch_cpus1.iew.wb_consumers         26424218                       # num instructions consuming a value
system.switch_cpus1.iew.wb_penalized                0                       # number of instrctions required to write to 'other' IQ
system.switch_cpus1.iew.wb_rate              1.625034                       # insts written-back per cycle
system.switch_cpus1.iew.wb_fanout            0.356297                       # average fanout of values written-back
system.switch_cpus1.iew.wb_penalized_rate            0                       # fraction of instructions written-back that wrote to 'other' IQ
system.switch_cpus1.commit.commitCommittedInsts      9888822                       # The number of committed instructions
system.switch_cpus1.commit.commitCommittedOps     12145443                       # The number of committed instructions
[...]
system.cpu3.icache.ReadReq_avg_miss_latency::total 289111.875000                       # average ReadReq miss latency
system.cpu3.icache.demand_avg_miss_latency::switch_cpus3.inst 289111.875000                       # average overall miss latency
system.cpu3.icache.demand_avg_miss_latency::total 289111.875000                       # average overall miss latency
system.cpu3.icache.overall_avg_miss_latency::switch_cpus3.inst 289111.875000                       # average overall miss latency
system.cpu3.icache.overall_avg_miss_latency::total 289111.875000                       # average overall miss latency
system.cpu3.icache.blocked_cycles::no_mshrs            0                       # number of cycles access was blocked
system.cpu3.icache.blocked_cycles::no_targets            0                       # number of cycles access was blocked
system.cpu3.icache.blocked::no_mshrs                0                       # number of cycles access was blocked
system.cpu3.icache.blocked::no_targets              0                       # number of cycles access was blocked
system.cpu3.icache.avg_blocked_cycles::no_mshrs          nan                       # average number of cycles each access was blocked
system.cpu3.icache.avg_blocked_cycles::no_targets          nan                       # average number of cycles each access was blocked
system.cpu3.icache.fast_writes                      0                       # number of fast writes performed
system.cpu3.icache.cache_copies                     0                       # number of cache copies performed
system.cpu3.icache.ReadReq_mshr_hits::switch_cpus3.inst           27                       # number of ReadReq MSHR hits
system.cpu3.icache.ReadReq_mshr_hits::total           27                       # number of ReadReq MSHR hits
system.cpu3.icache.demand_mshr_hits::switch_cpus3.inst           27                       # number of demand (read+write) MSHR hits
system.cpu3.icache.demand_mshr_hits::total           27                       # number of demand (read+write) MSHR hits
system.cpu3.icache.overall_mshr_hits::switch_cpus3.inst           27                       # number of overall MSHR hits
system.cpu3.icache.overall_mshr_hits::total           27                       # number of overall MSHR hits
system.cpu3.icache.ReadReq_mshr_misses::switch_cpus3.inst           45                       # number of ReadReq MSHR misses
system.cpu3.icache.ReadReq_mshr_misses::total           45                       # number of ReadReq MSHR misses
system.cpu3.icache.demand_mshr_misses::switch_cpus3.inst           45                       # number of demand (read+write) MSHR misses
system.cpu3.icache.demand_mshr_misses::total           45                       # number of demand (read+write) MSHR misses
system.cpu3.icache.overall_mshr_misses::switch_cpus3.inst           45                       # number of overall MSHR misses
system.cpu3.icache.overall_mshr_misses::total           45                       # number of overall MSHR misses
system.cpu3.icache.ReadReq_mshr_miss_latency::switch_cpus3.inst     14134110                       # number of ReadReq MSHR miss cycles
system.cpu3.icache.ReadReq_mshr_miss_latency::total     14134110                       # number of ReadReq MSHR miss cycles
system.cpu3.icache.demand_mshr_miss_latency::switch_cpus3.inst     14134110                       # number of demand (read+write) MSHR miss cycles
system.cpu3.icache.demand_mshr_miss_latency::total     14134110                       # number of demand (read+write) MSHR miss cycles
system.cpu3.icache.overall_mshr_miss_latency::switch_cpus3.inst     14134110                       # number of overall MSHR miss cycles
system.cpu3.icache.overall_mshr_miss_latency::total     14134110                       # number of overall MSHR miss cycles
system.cpu3.icache.ReadReq_mshr_miss_rate::switch_cpus3.inst     0.000029                       # mshr miss rate for ReadReq accesses
system.cpu3.icache.ReadReq_mshr_miss_rate::total     0.000029                       # mshr miss rate for ReadReq accesses
system.cpu3.icache.demand_mshr_miss_rate::switch_cpus3.inst     0.000029                       # mshr miss rate for demand accesses
system.cpu3.icache.demand_mshr_miss_rate::total     0.000029                       # mshr miss rate for demand accesses
system.cpu3.icache.overall_mshr_miss_rate::switch_cpus3.inst     0.000029                       # mshr miss rate for overall accesses
system.cpu3.icache.overall_mshr_miss_rate::total     0.000029                       # mshr miss rate for overall accesses
system.cpu3.icache.ReadReq_avg_mshr_miss_latency::switch_cpus3.inst 314091.333333                       # average ReadReq mshr miss latency
system.cpu3.icache.ReadReq_avg_mshr_miss_latency::total 314091.333333                       # average ReadReq mshr miss latency
system.cpu3.icache.demand_avg_mshr_miss_latency::switch_cpus3.inst 314091.333333                       # average overall mshr miss latency
system.cpu3.icache.demand_avg_mshr_miss_latency::total 314091.333333                       # average overall mshr miss latency
system.cpu3.icache.overall_avg_mshr_miss_latency::switch_cpus3.inst 314091.333333                       # average overall mshr miss latency
system.cpu3.icache.overall_avg_mshr_miss_latency::total 314091.333333                       # average overall mshr miss latency
system.cpu3.icache.no_allocate_misses               0                       # Number of misses that were no-allocate
system.cpu3.dcache.replacements                  5634                       # number of replacements
system.cpu3.dcache.tagsinuse                      256                       # Cycle average of tags in use
system.cpu3.dcache.total_refs               158220371                       # Total number of references to valid blocks.
system.cpu3.dcache.sampled_refs                  5890                       # Sample count of references to valid blocks.
system.cpu3.dcache.avg_refs              26862.541766                       # Average number of references to valid blocks.
system.cpu3.dcache.warmup_cycle                     0                       # Cycle when the warmup percentage was hit.
system.cpu3.dcache.occ_blocks::switch_cpus3.data   225.670621                       # Average occupied blocks per requestor
system.cpu3.dcache.occ_blocks::cpu3.data    30.329379                       # Average occupied blocks per requestor
system.cpu3.dcache.occ_percent::switch_cpus3.data     0.881526                       # Average percentage of cache occupancy
system.cpu3.dcache.occ_percent::cpu3.data     0.118474                       # Average percentage of cache occupancy
system.cpu3.dcache.occ_percent::total               1                       # Average percentage of cache occupancy
system.cpu3.dcache.ReadReq_hits::switch_cpus3.data      1073170                       # number of ReadReq hits
system.cpu3.dcache.ReadReq_hits::total        1073170                       # number of ReadReq hits
system.cpu3.dcache.WriteReq_hits::switch_cpus3.data       730007                       # number of WriteReq hits
system.cpu3.dcache.WriteReq_hits::total        730007                       # number of WriteReq hits
system.cpu3.dcache.LoadLockedReq_hits::switch_cpus3.data         1876                       # number of LoadLockedReq hits
system.cpu3.dcache.LoadLockedReq_hits::total         1876                       # number of LoadLockedReq hits
system.cpu3.dcache.StoreCondReq_hits::switch_cpus3.data         1717                       # number of StoreCondReq hits
system.cpu3.dcache.StoreCondReq_hits::total         1717                       # number of StoreCondReq hits
system.cpu3.dcache.demand_hits::switch_cpus3.data      1803177                       # number of demand (read+write) hits
system.cpu3.dcache.demand_hits::total         1803177                       # number of demand (read+write) hits
system.cpu3.dcache.overall_hits::switch_cpus3.data      1803177                       # number of overall hits
system.cpu3.dcache.overall_hits::total        1803177                       # number of overall hits
system.cpu3.dcache.ReadReq_misses::switch_cpus3.data        14025                       # number of ReadReq misses
system.cpu3.dcache.ReadReq_misses::total        14025                       # number of ReadReq misses
system.cpu3.dcache.WriteReq_misses::switch_cpus3.data          578                       # number of WriteReq misses
system.cpu3.dcache.WriteReq_misses::total          578                       # number of WriteReq misses
system.cpu3.dcache.demand_misses::switch_cpus3.data        14603                       # number of demand (read+write) misses
system.cpu3.dcache.demand_misses::total         14603                       # number of demand (read+write) misses
system.cpu3.dcache.overall_misses::switch_cpus3.data        14603                       # number of overall misses
system.cpu3.dcache.overall_misses::total        14603                       # number of overall misses
system.cpu3.dcache.ReadReq_miss_latency::switch_cpus3.data    806288366                       # number of ReadReq miss cycles
system.cpu3.dcache.ReadReq_miss_latency::total    806288366                       # number of ReadReq miss cycles
system.cpu3.dcache.WriteReq_miss_latency::switch_cpus3.data     61729692                       # number of WriteReq miss cycles
system.cpu3.dcache.WriteReq_miss_latency::total     61729692                       # number of WriteReq miss cycles
system.cpu3.dcache.demand_miss_latency::switch_cpus3.data    868018058                       # number of demand (read+write) miss cycles
system.cpu3.dcache.demand_miss_latency::total    868018058                       # number of demand (read+write) miss cycles
system.cpu3.dcache.overall_miss_latency::switch_cpus3.data    868018058                       # number of overall miss cycles
system.cpu3.dcache.overall_miss_latency::total    868018058                       # number of overall miss cycles
system.cpu3.dcache.ReadReq_accesses::switch_cpus3.data      1087195                       # number of ReadReq accesses(hits+misses)
system.cpu3.dcache.ReadReq_accesses::total      1087195                       # number of ReadReq accesses(hits+misses)
system.cpu3.dcache.WriteReq_accesses::switch_cpus3.data       730585                       # number of WriteReq accesses(hits+misses)
system.cpu3.dcache.WriteReq_accesses::total       730585                       # number of WriteReq accesses(hits+misses)
system.cpu3.dcache.LoadLockedReq_accesses::switch_cpus3.data         1876                       # number of LoadLockedReq accesses(hits+misses)
system.cpu3.dcache.LoadLockedReq_accesses::total         1876                       # number of LoadLockedReq accesses(hits+misses)
system.cpu3.dcache.StoreCondReq_accesses::switch_cpus3.data         1717                       # number of StoreCondReq accesses(hits+misses)
system.cpu3.dcache.StoreCondReq_accesses::total         1717                       # number of StoreCondReq accesses(hits+misses)
system.cpu3.dcache.demand_accesses::switch_cpus3.data      1817780                       # number of demand (read+write) accesses
system.cpu3.dcache.demand_accesses::total      1817780                       # number of demand (read+write) accesses
system.cpu3.dcache.overall_accesses::switch_cpus3.data      1817780                       # number of overall (read+write) accesses
system.cpu3.dcache.overall_accesses::total      1817780                       # number of overall (read+write) accesses
system.cpu3.dcache.ReadReq_miss_rate::switch_cpus3.data     0.012900                       # miss rate for ReadReq accesses
system.cpu3.dcache.ReadReq_miss_rate::total     0.012900                       # miss rate for ReadReq accesses
system.cpu3.dcache.WriteReq_miss_rate::switch_cpus3.data     0.000791                       # miss rate for WriteReq accesses
system.cpu3.dcache.WriteReq_miss_rate::total     0.000791                       # miss rate for WriteReq accesses
system.cpu3.dcache.demand_miss_rate::switch_cpus3.data     0.008033                       # miss rate for demand accesses
system.cpu3.dcache.demand_miss_rate::total     0.008033                       # miss rate for demand accesses
system.cpu3.dcache.overall_miss_rate::switch_cpus3.data     0.008033                       # miss rate for overall accesses
system.cpu3.dcache.overall_miss_rate::total     0.008033                       # miss rate for overall accesses
system.cpu3.dcache.ReadReq_avg_miss_latency::switch_cpus3.data 57489.366560                       # average ReadReq miss latency
system.cpu3.dcache.ReadReq_avg_miss_latency::total 57489.366560                       # average ReadReq miss latency
system.cpu3.dcache.WriteReq_avg_miss_latency::switch_cpus3.data 106798.775087                       # average WriteReq miss latency
system.cpu3.dcache.WriteReq_avg_miss_latency::total 106798.775087                       # average WriteReq miss latency
system.cpu3.dcache.demand_avg_miss_latency::switch_cpus3.data 59441.077724                       # average overall miss latency
system.cpu3.dcache.demand_avg_miss_latency::total 59441.077724                       # average overall miss latency
system.cpu3.dcache.overall_avg_miss_latency::switch_cpus3.data 59441.077724                       # average overall miss latency
system.cpu3.dcache.overall_avg_miss_latency::total 59441.077724                       # average overall miss latency
system.cpu3.dcache.blocked_cycles::no_mshrs            0                       # number of cycles access was blocked
system.cpu3.dcache.blocked_cycles::no_targets       328793                       # number of cycles access was blocked
system.cpu3.dcache.blocked::no_mshrs                0                       # number of cycles access was blocked
system.cpu3.dcache.blocked::no_targets              3                       # number of cycles access was blocked
system.cpu3.dcache.avg_blocked_cycles::no_mshrs          nan                       # average number of cycles each access was blocked
system.cpu3.dcache.avg_blocked_cycles::no_targets 109597.666667                       # average number of cycles each access was blocked
system.cpu3.dcache.fast_writes                      0                       # number of fast writes performed
system.cpu3.dcache.cache_copies                     0                       # number of cache copies performed
system.cpu3.dcache.writebacks::writebacks         2688                       # number of writebacks
system.cpu3.dcache.writebacks::total             2688                       # number of writebacks
system.cpu3.dcache.ReadReq_mshr_hits::switch_cpus3.data         8444                       # number of ReadReq MSHR hits
system.cpu3.dcache.ReadReq_mshr_hits::total         8444                       # number of ReadReq MSHR hits
system.cpu3.dcache.WriteReq_mshr_hits::switch_cpus3.data          525                       # number of WriteReq MSHR hits
system.cpu3.dcache.WriteReq_mshr_hits::total          525                       # number of WriteReq MSHR hits
system.cpu3.dcache.demand_mshr_hits::switch_cpus3.data         8969                       # number of demand (read+write) MSHR hits
system.cpu3.dcache.demand_mshr_hits::total         8969                       # number of demand (read+write) MSHR hits
system.cpu3.dcache.overall_mshr_hits::switch_cpus3.data         8969                       # number of overall MSHR hits
system.cpu3.dcache.overall_mshr_hits::total         8969                       # number of overall MSHR hits
system.cpu3.dcache.ReadReq_mshr_misses::switch_cpus3.data         5581                       # number of ReadReq MSHR misses
system.cpu3.dcache.ReadReq_mshr_misses::total         5581                       # number of ReadReq MSHR misses
system.cpu3.dcache.WriteReq_mshr_misses::switch_cpus3.data           53                       # number of WriteReq MSHR misses
system.cpu3.dcache.WriteReq_mshr_misses::total           53                       # number of WriteReq MSHR misses
system.cpu3.dcache.demand_mshr_misses::switch_cpus3.data         5634                       # number of demand (read+write) MSHR misses
system.cpu3.dcache.demand_mshr_misses::total         5634                       # number of demand (read+write) MSHR misses
system.cpu3.dcache.overall_mshr_misses::switch_cpus3.data         5634                       # number of overall MSHR misses
system.cpu3.dcache.overall_mshr_misses::total         5634                       # number of overall MSHR misses
system.cpu3.dcache.ReadReq_mshr_miss_latency::switch_cpus3.data    194034072                       # number of ReadReq MSHR miss cycles
system.cpu3.dcache.ReadReq_mshr_miss_latency::total    194034072                       # number of ReadReq MSHR miss cycles
system.cpu3.dcache.WriteReq_mshr_miss_latency::switch_cpus3.data      1244244                       # number of WriteReq MSHR miss cycles
system.cpu3.dcache.WriteReq_mshr_miss_latency::total      1244244                       # number of WriteReq MSHR miss cycles
system.cpu3.dcache.demand_mshr_miss_latency::switch_cpus3.data    195278316                       # number of demand (read+write) MSHR miss cycles
system.cpu3.dcache.demand_mshr_miss_latency::total    195278316                       # number of demand (read+write) MSHR miss cycles
system.cpu3.dcache.overall_mshr_miss_latency::switch_cpus3.data    195278316                       # number of overall MSHR miss cycles
system.cpu3.dcache.overall_mshr_miss_latency::total    195278316                       # number of overall MSHR miss cycles
system.cpu3.dcache.ReadReq_mshr_miss_rate::switch_cpus3.data     0.005133                       # mshr miss rate for ReadReq accesses
system.cpu3.dcache.ReadReq_mshr_miss_rate::total     0.005133                       # mshr miss rate for ReadReq accesses
system.cpu3.dcache.WriteReq_mshr_miss_rate::switch_cpus3.data     0.000073                       # mshr miss rate for WriteReq accesses
system.cpu3.dcache.WriteReq_mshr_miss_rate::total     0.000073                       # mshr miss rate for WriteReq accesses
system.cpu3.dcache.demand_mshr_miss_rate::switch_cpus3.data     0.003099                       # mshr miss rate for demand accesses
system.cpu3.dcache.demand_mshr_miss_rate::total     0.003099                       # mshr miss rate for demand accesses
system.cpu3.dcache.overall_mshr_miss_rate::switch_cpus3.data     0.003099                       # mshr miss rate for overall accesses
system.cpu3.dcache.overall_mshr_miss_rate::total     0.003099                       # mshr miss rate for overall accesses
system.cpu3.dcache.ReadReq_avg_mshr_miss_latency::switch_cpus3.data 34766.900555                       # average ReadReq mshr miss latency
system.cpu3.dcache.ReadReq_avg_mshr_miss_latency::total 34766.900555                       # average ReadReq mshr miss latency
system.cpu3.dcache.WriteReq_avg_mshr_miss_latency::switch_cpus3.data 23476.301887                       # average WriteReq mshr miss latency
system.cpu3.dcache.WriteReq_avg_mshr_miss_latency::total 23476.301887                       # average WriteReq mshr miss latency
system.cpu3.dcache.demand_avg_mshr_miss_latency::switch_cpus3.data 34660.687966                       # average overall mshr miss latency
system.cpu3.dcache.demand_avg_mshr_miss_latency::total 34660.687966                       # average overall mshr miss latency
system.cpu3.dcache.overall_avg_mshr_miss_latency::switch_cpus3.data 34660.687966                       # average overall mshr miss latency
system.cpu3.dcache.overall_avg_mshr_miss_latency::total 34660.687966                       # average overall mshr miss latency
system.cpu3.dcache.no_allocate_misses               0                       # Number of misses that were no-allocate

---------- End Simulation Statistics   ----------
