
---------- Begin Simulation Statistics ----------
sim_seconds                                  0.117115                       # Number of seconds simulated
sim_ticks                                117115437579                       # Number of ticks simulated
final_tick                               1168461417571                       # Number of ticks from beginning of simulation (restored from checkpoints and never reset)
sim_freq                                 1000000000000                       # Frequency of simulated ticks
host_inst_rate                                 104892                       # Simulator instruction rate (inst/s)
host_op_rate                                   132467                       # Simulator op (including micro ops) rate (op/s)
host_tick_rate                                3734582                       # Simulator tick rate (ticks/s)
host_mem_usage                               16902920                       # Number of bytes of host memory used
host_seconds                                 31359.72                       # Real time elapsed on the host
sim_insts                                  3289370852                       # Number of instructions simulated
sim_ops                                    4154121621                       # Number of ops (including micro ops) simulated
system.physmem.bytes_read::switch_cpus0.inst         1920                       # Number of bytes read from this memory
system.physmem.bytes_read::switch_cpus0.data       580608                       # Number of bytes read from this memory
system.physmem.bytes_read::switch_cpus1.inst         1792                       # Number of bytes read from this memory
system.physmem.bytes_read::switch_cpus1.data       643840                       # Number of bytes read from this memory
system.physmem.bytes_read::switch_cpus2.inst         1280                       # Number of bytes read from this memory
system.physmem.bytes_read::switch_cpus2.data      1549312                       # Number of bytes read from this memory
system.physmem.bytes_read::total              2778752                       # Number of bytes read from this memory
system.physmem.bytes_inst_read::switch_cpus0.inst         1920                       # Number of instructions bytes read from this memory
system.physmem.bytes_inst_read::switch_cpus1.inst         1792                       # Number of instructions bytes read from this memory
system.physmem.bytes_inst_read::switch_cpus2.inst         1280                       # Number of instructions bytes read from this memory
system.physmem.bytes_inst_read::total            4992                       # Number of instructions bytes read from this memory
system.physmem.bytes_written::writebacks      1399424                       # Number of bytes written to this memory
system.physmem.bytes_written::total           1399424                       # Number of bytes written to this memory
system.physmem.num_reads::switch_cpus0.inst           15                       # Number of read requests responded to by this memory
system.physmem.num_reads::switch_cpus0.data         4536                       # Number of read requests responded to by this memory
system.physmem.num_reads::switch_cpus1.inst           14                       # Number of read requests responded to by this memory
system.physmem.num_reads::switch_cpus1.data         5030                       # Number of read requests responded to by this memory
system.physmem.num_reads::switch_cpus2.inst           10                       # Number of read requests responded to by this memory
system.physmem.num_reads::switch_cpus2.data        12104                       # Number of read requests responded to by this memory
system.physmem.num_reads::total                 21709                       # Number of read requests responded to by this memory
system.physmem.num_writes::writebacks           10933                       # Number of write requests responded to by this memory
system.physmem.num_writes::functional               0                       # Number of write requests responded to by this memory
system.physmem.num_writes::interrupt                0                       # Number of write requests responded to by this memory
system.physmem.num_writes::switch_cpus0.dtb.walker            0                       # Number of write requests responded to by this memory
system.physmem.num_writes::switch_cpus0.itb.walker            0                       # Number of write requests responded to by this memory
system.physmem.num_writes::switch_cpus0.inst            0                       # Number of write requests responded to by this memory
system.physmem.num_writes::switch_cpus0.data            0                       # Number of write requests responded to by this memory
system.physmem.num_writes::switch_cpus1.dtb.walker            0                       # Number of write requests responded to by this memory
system.physmem.num_writes::switch_cpus1.itb.walker            0                       # Number of write requests responded to by this memory
system.physmem.num_writes::switch_cpus1.inst            0                       # Number of write requests responded to by this memory
system.physmem.num_writes::switch_cpus1.data            0                       # Number of write requests responded to by this memory
system.physmem.num_writes::switch_cpus2.dtb.walker            0                       # Number of write requests responded to by this memory
system.physmem.num_writes::switch_cpus2.itb.walker            0                       # Number of write requests responded to by this memory
system.physmem.num_writes::switch_cpus2.inst            0                       # Number of write requests responded to by this memory
system.physmem.num_writes::switch_cpus2.data            0                       # Number of write requests responded to by this memory
system.physmem.num_writes::cpu0.dtb.walker            0                       # Number of write requests responded to by this memory
system.physmem.num_writes::cpu0.itb.walker            0                       # Number of write requests responded to by this memory
system.physmem.num_writes::cpu0.inst                0                       # Number of write requests responded to by this memory
system.physmem.num_writes::cpu0.data                0                       # Number of write requests responded to by this memory
system.physmem.num_writes::cpu1.dtb.walker            0                       # Number of write requests responded to by this memory
system.physmem.num_writes::cpu1.itb.walker            0                       # Number of write requests responded to by this memory
system.physmem.num_writes::cpu1.inst                0                       # Number of write requests responded to by this memory
system.physmem.num_writes::cpu1.data                0                       # Number of write requests responded to by this memory
system.physmem.num_writes::cpu2.dtb.walker            0                       # Number of write requests responded to by this memory
system.physmem.num_writes::cpu2.itb.walker            0                       # Number of write requests responded to by this memory
system.physmem.num_writes::cpu2.inst                0                       # Number of write requests responded to by this memory
system.physmem.num_writes::cpu2.data                0                       # Number of write requests responded to by this memory
system.physmem.num_writes::total                10933                       # Number of write requests responded to by this memory
system.physmem.bw_read::switch_cpus0.inst        16394                       # Total read bandwidth from this memory (bytes/s)
system.physmem.bw_read::switch_cpus0.data      4957570                       # Total read bandwidth from this memory (bytes/s)
system.physmem.bw_read::switch_cpus1.inst        15301                       # Total read bandwidth from this memory (bytes/s)
system.physmem.bw_read::switch_cpus1.data      5497482                       # Total read bandwidth from this memory (bytes/s)
system.physmem.bw_read::switch_cpus2.inst        10929                       # Total read bandwidth from this memory (bytes/s)
system.physmem.bw_read::switch_cpus2.data     13228931                       # Total read bandwidth from this memory (bytes/s)
system.physmem.bw_read::total                23726607                       # Total read bandwidth from this memory (bytes/s)
system.physmem.bw_inst_read::switch_cpus0.inst        16394                       # Instruction read bandwidth from this memory (bytes/s)
system.physmem.bw_inst_read::switch_cpus1.inst        15301                       # Instruction read bandwidth from this memory (bytes/s)
system.physmem.bw_inst_read::switch_cpus2.inst        10929                       # Instruction read bandwidth from this memory (bytes/s)
system.physmem.bw_inst_read::total              42625                       # Instruction read bandwidth from this memory (bytes/s)
system.physmem.bw_write::writebacks          11949099                       # Write bandwidth from this memory (bytes/s)
system.physmem.bw_write::total               11949099                       # Write bandwidth from this memory (bytes/s)
system.physmem.bw_total::writebacks          11949099                       # Total bandwidth to/from this memory (bytes/s)
system.physmem.bw_total::switch_cpus0.inst        16394                       # Total bandwidth to/from this memory (bytes/s)
system.physmem.bw_total::switch_cpus0.data      4957570                       # Total bandwidth to/from this memory (bytes/s)
system.physmem.bw_total::switch_cpus1.inst        15301                       # Total bandwidth to/from this memory (bytes/s)
system.physmem.bw_total::switch_cpus1.data      5497482                       # Total bandwidth to/from this memory (bytes/s)
system.physmem.bw_total::switch_cpus2.inst        10929                       # Total bandwidth to/from this memory (bytes/s)
system.physmem.bw_total::switch_cpus2.data     13228931                       # Total bandwidth to/from this memory (bytes/s)
system.physmem.bw_total::total               35675707                       # Total bandwidth to/from this memory (bytes/s)
system.switch_cpus0.dtb.inst_hits                   0                       # ITB inst hits
system.switch_cpus0.dtb.inst_misses                 0                       # ITB inst misses
system.switch_cpus0.dtb.read_hits                   0                       # DTB read hits
system.switch_cpus0.dtb.read_misses                 0                       # DTB read misses
system.switch_cpus0.dtb.write_hits                  0                       # DTB write hits
system.switch_cpus0.dtb.write_misses                0                       # DTB write misses
system.switch_cpus0.dtb.flush_tlb                   0                       # Number of times complete TLB was flushed
system.switch_cpus0.dtb.flush_tlb_mva               0                       # Number of times TLB was flushed by MVA
system.switch_cpus0.dtb.flush_tlb_mva_asid            0                       # Number of times TLB was flushed by MVA & ASID
system.switch_cpus0.dtb.flush_tlb_asid              0                       # Number of times TLB was flushed by ASID
system.switch_cpus0.dtb.flush_entries               0                       # Number of entries that have been flushed from TLB
system.switch_cpus0.dtb.align_faults                0                       # Number of TLB faults due to alignment restrictions
system.switch_cpus0.dtb.prefetch_faults             0                       # Number of TLB faults due to prefetch
system.switch_cpus0.dtb.domain_faults               0                       # Number of TLB faults due to domain restrictions
system.switch_cpus0.dtb.perms_faults                0                       # Number of TLB faults due to permissions restrictions
system.switch_cpus0.dtb.read_accesses               0                       # DTB read accesses
system.switch_cpus0.dtb.write_accesses              0                       # DTB write accesses
system.switch_cpus0.dtb.inst_accesses               0                       # ITB inst accesses
system.switch_cpus0.dtb.hits                        0                       # DTB hits
system.switch_cpus0.dtb.misses                      0                       # DTB misses
system.switch_cpus0.dtb.accesses                    0                       # DTB accesses
system.switch_cpus0.itb.inst_hits                   0                       # ITB inst hits
system.switch_cpus0.itb.inst_misses                 0                       # ITB inst misses
system.switch_cpus0.itb.read_hits                   0                       # DTB read hits
system.switch_cpus0.itb.read_misses                 0                       # DTB read misses
system.switch_cpus0.itb.write_hits                  0                       # DTB write hits
system.switch_cpus0.itb.write_misses                0                       # DTB write misses
system.switch_cpus0.itb.flush_tlb                   0                       # Number of times complete TLB was flushed
system.switch_cpus0.itb.flush_tlb_mva               0                       # Number of times TLB was flushed by MVA
system.switch_cpus0.itb.flush_tlb_mva_asid            0                       # Number of times TLB was flushed by MVA & ASID
system.switch_cpus0.itb.flush_tlb_asid              0                       # Number of times TLB was flushed by ASID
system.switch_cpus0.itb.flush_entries               0                       # Number of entries that have been flushed from TLB
system.switch_cpus0.itb.align_faults                0                       # Number of TLB faults due to alignment restrictions
system.switch_cpus0.itb.prefetch_faults             0                       # Number of TLB faults due to prefetch
system.switch_cpus0.itb.domain_faults               0                       # Number of TLB faults due to domain restrictions
system.switch_cpus0.itb.perms_faults                0                       # Number of TLB faults due to permissions restrictions
system.switch_cpus0.itb.read_accesses               0                       # DTB read accesses
system.switch_cpus0.itb.write_accesses              0                       # DTB write accesses
system.switch_cpus0.itb.inst_accesses               0                       # ITB inst accesses
system.switch_cpus0.itb.hits                        0                       # DTB hits
system.switch_cpus0.itb.misses                      0                       # DTB misses
system.switch_cpus0.itb.accesses                    0                       # DTB accesses
system.cpu0.workload.num_syscalls                   0                       # Number of system calls
system.switch_cpus0.numCycles               140594764                       # number of cpu cycles simulated
system.switch_cpus0.numWorkItemsStarted             0                       # number of work items this cpu started
system.switch_cpus0.numWorkItemsCompleted            0                       # number of work items this cpu completed
system.switch_cpus0.BPredUnit.lookups        23686566                       # Number of BP lookups
system.switch_cpus0.BPredUnit.condPredicted     19406319                       # Number of conditional branches predicted
system.switch_cpus0.BPredUnit.condIncorrect      2009865                       # Number of conditional branches incorrect
system.switch_cpus0.BPredUnit.BTBLookups      9631509                       # Number of BTB lookups
system.switch_cpus0.BPredUnit.BTBHits         9357626                       # Number of BTB hits
system.switch_cpus0.BPredUnit.BTBCorrect            0                       # Number of correct BTB predictions (this stat may not work properly.
system.switch_cpus0.BPredUnit.usedRAS         2424334                       # Number of times the RAS was used to get a target.
system.switch_cpus0.BPredUnit.RASInCorrect        92206                       # Number of incorrect RAS predictions.
system.switch_cpus0.fetch.icacheStallCycles    105103407                       # Number of cycles fetch is stalled on an Icache miss
system.switch_cpus0.fetch.Insts             127139388                       # Number of instructions fetch has processed
system.switch_cpus0.fetch.Branches           23686566                       # Number of branches that fetch encountered
system.switch_cpus0.fetch.predictedBranches     11781960                       # Number of branches that fetch has predicted taken
system.switch_cpus0.fetch.Cycles             27545876                       # Number of cycles fetch has run and was not squashing or blocked
system.switch_cpus0.fetch.SquashCycles        6024427                       # Number of cycles fetch has spent squashing
system.switch_cpus0.fetch.BlockedCycles       3437646                       # Number of cycles fetch has spent blocked
system.switch_cpus0.fetch.CacheLines         12297084                       # Number of cache lines fetched
system.switch_cpus0.fetch.IcacheSquashes      1571154                       # Number of outstanding Icache misses that were squashed
system.switch_cpus0.fetch.rateDist::samples    140084198                       # Number of instructions fetched each cycle (Total)
system.switch_cpus0.fetch.rateDist::mean     1.110736                       # Number of instructions fetched each cycle (Total)
system.switch_cpus0.fetch.rateDist::stdev     2.535434                       # Number of instructions fetched each cycle (Total)
system.switch_cpus0.fetch.rateDist::underflows            0      0.00%      0.00% # Number of instructions fetched each cycle (Total)
system.switch_cpus0.fetch.rateDist::0       112538322     80.34%     80.34% # Number of instructions fetched each cycle (Total)
system.switch_cpus0.fetch.rateDist::1         2221060      1.59%     81.92% # Number of instructions fetched each cycle (Total)
system.switch_cpus0.fetch.rateDist::2         3773201      2.69%     84.62% # Number of instructions fetched each cycle (Total)
system.switch_cpus0.fetch.rateDist::3         2194625      1.57%     86.18% # Number of instructions fetched each cycle (Total)
system.switch_cpus0.fetch.rateDist::4         1719217      1.23%     87.41% # Number of instructions fetched each cycle (Total)
system.switch_cpus0.fetch.rateDist::5         1517907      1.08%     88.49% # Number of instructions fetched each cycle (Total)
system.switch_cpus0.fetch.rateDist::6          928116      0.66%     89.16% # Number of instructions fetched each cycle (Total)
system.switch_cpus0.fetch.rateDist::7         2323813      1.66%     90.81% # Number of instructions fetched each cycle (Total)
system.switch_cpus0.fetch.rateDist::8        12867937      9.19%    100.00% # Number of instructions fetched each cycle (Total)
system.switch_cpus0.fetch.rateDist::overflows            0      0.00%    100.00% # Number of instructions fetched each cycle (Total)
system.switch_cpus0.fetch.rateDist::min_value            0                       # Number of instructions fetched each cycle (Total)
system.switch_cpus0.fetch.rateDist::max_value            8                       # Number of instructions fetched each cycle (Total)
system.switch_cpus0.fetch.rateDist::total    140084198                       # Number of instructions fetched each cycle (Total)
system.switch_cpus0.fetch.branchRate         0.168474                       # Number of branch fetches per cycle
system.switch_cpus0.fetch.rate               0.904297                       # Number of inst fetches per cycle
system.switch_cpus0.decode.IdleCycles       104441618                       # Number of cycles decode is idle
system.switch_cpus0.decode.BlockedCycles      4610162                       # Number of cycles decode is blocked
system.switch_cpus0.decode.RunCycles         26963872                       # Number of cycles decode is running
system.switch_cpus0.decode.UnblockCycles        71478                       # Number of cycles decode is unblocking
system.switch_cpus0.decode.SquashCycles       3997060                       # Number of cycles decode is squashing
system.switch_cpus0.decode.BranchResolved      3882106                       # Number of times decode resolved a branch
system.switch_cpus0.decode.BranchMispred          211                       # Number of times decode detected a branch misprediction
system.switch_cpus0.decode.DecodedInsts     153281181                       # Number of instructions handled by decode
system.switch_cpus0.decode.SquashedInsts         1197                       # Number of squashed instructions handled by decode
system.switch_cpus0.rename.SquashCycles       3997060                       # Number of cycles rename is squashing
system.switch_cpus0.rename.IdleCycles       104968683                       # Number of cycles rename is idle
system.switch_cpus0.rename.BlockCycles         599680                       # Number of cycles rename is blocking
system.switch_cpus0.rename.serializeStallCycles      3111189                       # count of cycles rename stalled for serializing inst
system.switch_cpus0.rename.RunCycles         26491079                       # Number of cycles rename is running
system.switch_cpus0.rename.UnblockCycles       916500                       # Number of cycles rename is unblocking
system.switch_cpus0.rename.RenamedInsts     152235694                       # Number of instructions processed by rename
system.switch_cpus0.rename.IQFullEvents         93437                       # Number of times rename has blocked due to IQ full
system.switch_cpus0.rename.LSQFullEvents       528969                       # Number of times rename has blocked due to LSQ full
system.switch_cpus0.rename.RenamedOperands    214916165                       # Number of destination operands rename has renamed
system.switch_cpus0.rename.RenameLookups    708250262                       # Number of register rename lookups that rename has made
system.switch_cpus0.rename.int_rename_lookups    708250262                       # Number of integer rename lookups
system.switch_cpus0.rename.CommittedMaps    171990357                       # Number of HB maps that are committed
system.switch_cpus0.rename.UndoneMaps        42925790                       # Number of HB maps that are undone due to squashing
system.switch_cpus0.rename.serializingInsts        34227                       # count of serializing insts renamed
system.switch_cpus0.rename.tempSerializingInsts        17140                       # count of temporary serializing insts renamed
system.switch_cpus0.rename.skidInsts          2668883                       # count of insts added to the skid buffer
system.switch_cpus0.memDep0.insertedLoads     14160085                       # Number of loads inserted to the mem dependence unit.
system.switch_cpus0.memDep0.insertedStores      7226152                       # Number of stores inserted to the mem dependence unit.
system.switch_cpus0.memDep0.conflictingLoads        70049                       # Number of conflicting loads.
system.switch_cpus0.memDep0.conflictingStores      1646262                       # Number of conflicting stores.
system.switch_cpus0.iq.iqInstsAdded         147243007                       # Number of instructions added to the IQ (excludes non-spec)
system.switch_cpus0.iq.iqNonSpecInstsAdded        34228                       # Number of non-speculative instructions added to the IQ
system.switch_cpus0.iq.iqInstsIssued        138179446                       # Number of instructions issued
system.switch_cpus0.iq.iqSquashedInstsIssued        88797                       # Number of squashed instructions issued
system.switch_cpus0.iq.iqSquashedInstsExamined     21997859                       # Number of squashed instructions iterated over during squash; mainly for profiling
system.switch_cpus0.iq.iqSquashedOperandsExamined     48857582                       # Number of squashed operands that are examined and possibly removed from graph
system.switch_cpus0.iq.iqSquashedNonSpecRemoved           52                       # Number of squashed non-spec instructions that were removed
system.switch_cpus0.iq.issued_per_cycle::samples    140084198                       # Number of insts issued each cycle
system.switch_cpus0.iq.issued_per_cycle::mean     0.986403                       # Number of insts issued each cycle
system.switch_cpus0.iq.issued_per_cycle::stdev     1.547333                       # Number of insts issued each cycle
system.switch_cpus0.iq.issued_per_cycle::underflows            0      0.00%      0.00% # Number of insts issued each cycle
system.switch_cpus0.iq.issued_per_cycle::0     83706749     59.75%     59.75% # Number of insts issued each cycle
system.switch_cpus0.iq.issued_per_cycle::1     21634761     15.44%     75.20% # Number of insts issued each cycle
system.switch_cpus0.iq.issued_per_cycle::2     11649688      8.32%     83.51% # Number of insts issued each cycle
system.switch_cpus0.iq.issued_per_cycle::3      8659437      6.18%     89.70% # Number of insts issued each cycle
system.switch_cpus0.iq.issued_per_cycle::4      8443660      6.03%     95.72% # Number of insts issued each cycle
system.switch_cpus0.iq.issued_per_cycle::5      3122914      2.23%     97.95% # Number of insts issued each cycle
system.switch_cpus0.iq.issued_per_cycle::6      2370126      1.69%     99.65% # Number of insts issued each cycle
system.switch_cpus0.iq.issued_per_cycle::7       317872      0.23%     99.87% # Number of insts issued each cycle
system.switch_cpus0.iq.issued_per_cycle::8       178991      0.13%    100.00% # Number of insts issued each cycle
system.switch_cpus0.iq.issued_per_cycle::overflows            0      0.00%    100.00% # Number of insts issued each cycle
system.switch_cpus0.iq.issued_per_cycle::min_value            0                       # Number of insts issued each cycle
system.switch_cpus0.iq.issued_per_cycle::max_value            8                       # Number of insts issued each cycle
system.switch_cpus0.iq.issued_per_cycle::total    140084198                       # Number of insts issued each cycle
system.switch_cpus0.iq.fu_full::No_OpClass            0      0.00%      0.00% # attempts to use FU when none available
system.switch_cpus0.iq.fu_full::IntAlu         122841     27.99%     27.99% # attempts to use FU when none available
system.switch_cpus0.iq.fu_full::IntMult             0      0.00%     27.99% # attempts to use FU when none available
system.switch_cpus0.iq.fu_full::IntDiv              0      0.00%     27.99% # attempts to use FU when none available
system.switch_cpus0.iq.fu_full::FloatAdd            0      0.00%     27.99% # attempts to use FU when none available
system.switch_cpus0.iq.fu_full::FloatCmp            0      0.00%     27.99% # attempts to use FU when none available
system.switch_cpus0.iq.fu_full::FloatCvt            0      0.00%     27.99% # attempts to use FU when none available
system.switch_cpus0.iq.fu_full::FloatMult            0      0.00%     27.99% # attempts to use FU when none available
system.switch_cpus0.iq.fu_full::FloatDiv            0      0.00%     27.99% # attempts to use FU when none available
system.switch_cpus0.iq.fu_full::FloatSqrt            0      0.00%     27.99% # attempts to use FU when none available
system.switch_cpus0.iq.fu_full::SimdAdd             0      0.00%     27.99% # attempts to use FU when none available
system.switch_cpus0.iq.fu_full::SimdAddAcc            0      0.00%     27.99% # attempts to use FU when none available
system.switch_cpus0.iq.fu_full::SimdAlu             0      0.00%     27.99% # attempts to use FU when none available
system.switch_cpus0.iq.fu_full::SimdCmp             0      0.00%     27.99% # attempts to use FU when none available
system.switch_cpus0.iq.fu_full::SimdCvt             0      0.00%     27.99% # attempts to use FU when none available
system.switch_cpus0.iq.fu_full::SimdMisc            0      0.00%     27.99% # attempts to use FU when none available
system.switch_cpus0.iq.fu_full::SimdMult            0      0.00%     27.99% # attempts to use FU when none available
system.switch_cpus0.iq.fu_full::SimdMultAcc            0      0.00%     27.99% # attempts to use FU when none available
system.switch_cpus0.iq.fu_full::SimdShift            0      0.00%     27.99% # attempts to use FU when none available
system.switch_cpus0.iq.fu_full::SimdShiftAcc            0      0.00%     27.99% # attempts to use FU when none available
system.switch_cpus0.iq.fu_full::SimdSqrt            0      0.00%     27.99% # attempts to use FU when none available
system.switch_cpus0.iq.fu_full::SimdFloatAdd            0      0.00%     27.99% # attempts to use FU when none available
system.switch_cpus0.iq.fu_full::SimdFloatAlu            0      0.00%     27.99% # attempts to use FU when none available
system.switch_cpus0.iq.fu_full::SimdFloatCmp            0      0.00%     27.99% # attempts to use FU when none available
system.switch_cpus0.iq.fu_full::SimdFloatCvt            0      0.00%     27.99% # attempts to use FU when none available
system.switch_cpus0.iq.fu_full::SimdFloatDiv            0      0.00%     27.99% # attempts to use FU when none available
system.switch_cpus0.iq.fu_full::SimdFloatMisc            0      0.00%     27.99% # attempts to use FU when none available
system.switch_cpus0.iq.fu_full::SimdFloatMult            0      0.00%     27.99% # attempts to use FU when none available
system.switch_cpus0.iq.fu_full::SimdFloatMultAcc            0      0.00%     27.99% # attempts to use FU when none available
system.switch_cpus0.iq.fu_full::SimdFloatSqrt            0      0.00%     27.99% # attempts to use FU when none available
system.switch_cpus0.iq.fu_full::MemRead        164381     37.45%     65.44% # attempts to use FU when none available
system.switch_cpus0.iq.fu_full::MemWrite       151694     34.56%    100.00% # attempts to use FU when none available
system.switch_cpus0.iq.fu_full::IprAccess            0      0.00%    100.00% # attempts to use FU when none available
system.switch_cpus0.iq.fu_full::InstPrefetch            0      0.00%    100.00% # attempts to use FU when none available
system.switch_cpus0.iq.FU_type_0::No_OpClass            0      0.00%      0.00% # Type of FU issued
system.switch_cpus0.iq.FU_type_0::IntAlu    116628779     84.40%     84.40% # Type of FU issued
system.switch_cpus0.iq.FU_type_0::IntMult      1870870      1.35%     85.76% # Type of FU issued
system.switch_cpus0.iq.FU_type_0::IntDiv            0      0.00%     85.76% # Type of FU issued
system.switch_cpus0.iq.FU_type_0::FloatAdd            0      0.00%     85.76% # Type of FU issued
system.switch_cpus0.iq.FU_type_0::FloatCmp            0      0.00%     85.76% # Type of FU issued
system.switch_cpus0.iq.FU_type_0::FloatCvt            0      0.00%     85.76% # Type of FU issued
system.switch_cpus0.iq.FU_type_0::FloatMult            0      0.00%     85.76% # Type of FU issued
system.switch_cpus0.iq.FU_type_0::FloatDiv            0      0.00%     85.76% # Type of FU issued
system.switch_cpus0.iq.FU_type_0::FloatSqrt            0      0.00%     85.76% # Type of FU issued
system.switch_cpus0.iq.FU_type_0::SimdAdd            0      0.00%     85.76% # Type of FU issued
system.switch_cpus0.iq.FU_type_0::SimdAddAcc            0      0.00%     85.76% # Type of FU issued
system.switch_cpus0.iq.FU_type_0::SimdAlu            0      0.00%     85.76% # Type of FU issued
system.switch_cpus0.iq.FU_type_0::SimdCmp            0      0.00%     85.76% # Type of FU issued
system.switch_cpus0.iq.FU_type_0::SimdCvt            0      0.00%     85.76% # Type of FU issued
system.switch_cpus0.iq.FU_type_0::SimdMisc            0      0.00%     85.76% # Type of FU issued
system.switch_cpus0.iq.FU_type_0::SimdMult            0      0.00%     85.76% # Type of FU issued
system.switch_cpus0.iq.FU_type_0::SimdMultAcc            0      0.00%     85.76% # Type of FU issued
system.switch_cpus0.iq.FU_type_0::SimdShift            0      0.00%     85.76% # Type of FU issued
system.switch_cpus0.iq.FU_type_0::SimdShiftAcc            0      0.00%     85.76% # Type of FU issued
system.switch_cpus0.iq.FU_type_0::SimdSqrt            0      0.00%     85.76% # Type of FU issued
system.switch_cpus0.iq.FU_type_0::SimdFloatAdd            0      0.00%     85.76% # Type of FU issued
system.switch_cpus0.iq.FU_type_0::SimdFloatAlu            0      0.00%     85.76% # Type of FU issued
system.switch_cpus0.iq.FU_type_0::SimdFloatCmp            0      0.00%     85.76% # Type of FU issued
system.switch_cpus0.iq.FU_type_0::SimdFloatCvt            0      0.00%     85.76% # Type of FU issued
system.switch_cpus0.iq.FU_type_0::SimdFloatDiv            0      0.00%     85.76% # Type of FU issued
system.switch_cpus0.iq.FU_type_0::SimdFloatMisc        17087      0.01%     85.77% # Type of FU issued
system.switch_cpus0.iq.FU_type_0::SimdFloatMult            0      0.00%     85.77% # Type of FU issued
system.switch_cpus0.iq.FU_type_0::SimdFloatMultAcc            0      0.00%     85.77% # Type of FU issued
system.switch_cpus0.iq.FU_type_0::SimdFloatSqrt            0      0.00%     85.77% # Type of FU issued
system.switch_cpus0.iq.FU_type_0::MemRead     12461519      9.02%     94.79% # Type of FU issued
system.switch_cpus0.iq.FU_type_0::MemWrite      7201191      5.21%    100.00% # Type of FU issued
system.switch_cpus0.iq.FU_type_0::IprAccess            0      0.00%    100.00% # Type of FU issued
system.switch_cpus0.iq.FU_type_0::InstPrefetch            0      0.00%    100.00% # Type of FU issued
system.switch_cpus0.iq.FU_type_0::total     138179446                       # Type of FU issued
system.switch_cpus0.iq.rate                  0.982821                       # Inst issue rate
system.switch_cpus0.iq.fu_busy_cnt             438916                       # FU busy when requested
system.switch_cpus0.iq.fu_busy_rate          0.003176                       # FU busy rate (busy events/executed inst)
system.switch_cpus0.iq.int_inst_queue_reads    416970797                       # Number of integer instruction queue reads
system.switch_cpus0.iq.int_inst_queue_writes    169275328                       # Number of integer instruction queue writes
system.switch_cpus0.iq.int_inst_queue_wakeup_accesses    135227755                       # Number of integer instruction queue wakeup accesses
system.switch_cpus0.iq.fp_inst_queue_reads            0                       # Number of floating instruction queue reads
system.switch_cpus0.iq.fp_inst_queue_writes            0                       # Number of floating instruction queue writes
system.switch_cpus0.iq.fp_inst_queue_wakeup_accesses            0                       # Number of floating instruction queue wakeup accesses
system.switch_cpus0.iq.int_alu_accesses     138618362                       # Number of integer alu accesses
system.switch_cpus0.iq.fp_alu_accesses              0                       # Number of floating point alu accesses
system.switch_cpus0.iew.lsq.thread0.forwLoads       281266                       # Number of loads that had data forwarded from stores
system.switch_cpus0.iew.lsq.thread0.invAddrLoads            0                       # Number of loads ignored due to an invalid address
system.switch_cpus0.iew.lsq.thread0.squashedLoads      2984278                       # Number of loads squashed
system.switch_cpus0.iew.lsq.thread0.ignoredResponses            2                       # Number of memory responses ignored because the instruction is squashed
system.switch_cpus0.iew.lsq.thread0.memOrderViolation          234                       # Number of memory ordering violations
system.switch_cpus0.iew.lsq.thread0.squashedStores       119129                       # Number of stores squashed
system.switch_cpus0.iew.lsq.thread0.invAddrSwpfs            0                       # Number of software prefetches ignored due to an invalid address
system.switch_cpus0.iew.lsq.thread0.blockedLoads            0                       # Number of blocked loads due to partial load-store forwarding
system.switch_cpus0.iew.lsq.thread0.rescheduledLoads            0                       # Number of loads that were rescheduled
system.switch_cpus0.iew.lsq.thread0.cacheBlocked            0                       # Number of times an access to memory failed due to the cache being blocked
system.switch_cpus0.iew.iewIdleCycles               0                       # Number of cycles IEW is idle
system.switch_cpus0.iew.iewSquashCycles       3997060                       # Number of cycles IEW is squashing
system.switch_cpus0.iew.iewBlockCycles         402051                       # Number of cycles IEW is blocking
system.switch_cpus0.iew.iewUnblockCycles        53689                       # Number of cycles IEW is unblocking
system.switch_cpus0.iew.iewDispatchedInsts    147277235                       # Number of instructions dispatched to IQ
system.switch_cpus0.iew.iewDispSquashedInsts       763660                       # Number of squashed instructions skipped by dispatch
system.switch_cpus0.iew.iewDispLoadInsts     14160085                       # Number of dispatched load instructions
system.switch_cpus0.iew.iewDispStoreInsts      7226152                       # Number of dispatched store instructions
system.switch_cpus0.iew.iewDispNonSpecInsts        17140                       # Number of dispatched non-speculative instructions
system.switch_cpus0.iew.iewIQFullEvents         43497                       # Number of times the IQ has become full, causing a stall
system.switch_cpus0.iew.iewLSQFullEvents            0                       # Number of times the LSQ has become full, causing a stall
system.switch_cpus0.iew.memOrderViolationEvents          234                       # Number of memory order violations
system.switch_cpus0.iew.predictedTakenIncorrect      1154298                       # Number of branches that were predicted taken incorrectly
system.switch_cpus0.iew.predictedNotTakenIncorrect      1070783                       # Number of branches that were predicted not taken incorrectly
system.switch_cpus0.iew.branchMispredicts      2225081                       # Number of branch mispredicts detected at execute
system.switch_cpus0.iew.iewExecutedInsts    136027638                       # Number of executed instructions
system.switch_cpus0.iew.iewExecLoadInsts     12148244                       # Number of load instructions executed
system.switch_cpus0.iew.iewExecSquashedInsts      2151802                       # Number of squashed instructions skipped in execute
system.switch_cpus0.iew.exec_swp                    0                       # number of swp insts executed
system.switch_cpus0.iew.exec_nop                    0                       # number of nop insts executed
system.switch_cpus0.iew.exec_refs            19349203                       # number of memory reference insts executed
system.switch_cpus0.iew.exec_branches        19247371                       # Number of branches executed
system.switch_cpus0.iew.exec_stores           7200959                       # Number of stores executed
system.switch_cpus0.iew.exec_rate            0.967516                       # Inst execution rate
system.switch_cpus0.iew.wb_sent             135227819                       # cumulative count of insts sent to commit
system.switch_cpus0.iew.wb_count            135227755                       # cumulative count of insts written-back
system.switch_cpus0.iew.wb_producers         79956779                       # num instructions producing a value
system.switch_cpus0.iew.wb_consumers        221528987                       # num instructions consuming a value
system.switch_cpus0.iew.wb_penalized                0                       # number of instrctions required to write to 'other' IQ
system.switch_cpus0.iew.wb_rate              0.961826                       # insts written-back per cycle
system.switch_cpus0.iew.wb_fanout            0.360931                       # average fanout of values written-back
system.switch_cpus0.iew.wb_penalized_rate            0                       # fraction of instructions written-back that wrote to 'other' IQ
system.switch_cpus0.commit.commitCommittedInsts    100000001                       # The number of committed instructions
system.switch_cpus0.commit.commitCommittedOps    123264152                       # The number of committed instructions
system.switch_cpus0.commit.commitSquashedInsts     24013353                       # The number of squashed insts skipped by commit
system.switch_cpus0.commit.commitNonSpecStalls        34176                       # The number of times commit has been forced to stall to communicate backwards
system.switch_cpus0.commit.branchMispredicts      2026796                       # The number of times a branch was mispredicted
system.switch_cpus0.commit.committed_per_cycle::samples    136087138                       # Number of insts commited each cycle
system.switch_cpus0.commit.committed_per_cycle::mean     0.905774                       # Number of insts commited each cycle
system.switch_cpus0.commit.committed_per_cycle::stdev     1.714390                       # Number of insts commited each cycle
system.switch_cpus0.commit.committed_per_cycle::underflows            0      0.00%      0.00% # Number of insts commited each cycle
system.switch_cpus0.commit.committed_per_cycle::0     86234017     63.37%     63.37% # Number of insts commited each cycle
system.switch_cpus0.commit.committed_per_cycle::1     24029177     17.66%     81.02% # Number of insts commited each cycle
system.switch_cpus0.commit.committed_per_cycle::2      9395353      6.90%     87.93% # Number of insts commited each cycle
system.switch_cpus0.commit.committed_per_cycle::3      4940987      3.63%     91.56% # Number of insts commited each cycle
system.switch_cpus0.commit.committed_per_cycle::4      4207324      3.09%     94.65% # Number of insts commited each cycle
system.switch_cpus0.commit.committed_per_cycle::5      2023758      1.49%     96.14% # Number of insts commited each cycle
system.switch_cpus0.commit.committed_per_cycle::6       951890      0.70%     96.84% # Number of insts commited each cycle
system.switch_cpus0.commit.committed_per_cycle::7      1475174      1.08%     97.92% # Number of insts commited each cycle
system.switch_cpus0.commit.committed_per_cycle::8      2829458      2.08%    100.00% # Number of insts commited each cycle
system.switch_cpus0.commit.committed_per_cycle::overflows            0      0.00%    100.00% # Number of insts commited each cycle
system.switch_cpus0.commit.committed_per_cycle::min_value            0                       # Number of insts commited each cycle
system.switch_cpus0.commit.committed_per_cycle::max_value            8                       # Number of insts commited each cycle
system.switch_cpus0.commit.committed_per_cycle::total    136087138                       # Number of insts commited each cycle
system.switch_cpus0.commit.committedInsts    100000001                       # Number of instructions committed
system.switch_cpus0.commit.committedOps     123264152                       # Number of ops (including micro ops) committed
system.switch_cpus0.commit.swp_count                0                       # Number of s/w prefetches committed
system.switch_cpus0.commit.refs              18282827                       # Number of memory references committed
system.switch_cpus0.commit.loads             11175804                       # Number of loads committed
system.switch_cpus0.commit.membars              17088                       # Number of memory barriers committed
system.switch_cpus0.commit.branches          17884103                       # Number of branches committed
system.switch_cpus0.commit.fp_insts                 0                       # Number of committed floating point instructions.
system.switch_cpus0.commit.int_insts        110969711                       # Number of committed integer instructions.
system.switch_cpus0.commit.function_calls      2549483                       # Number of function calls committed.
system.switch_cpus0.commit.bw_lim_events      2829458                       # number cycles where commit BW limit reached
system.switch_cpus0.commit.bw_limited               0                       # number of insts not committed due to BW limits
system.switch_cpus0.rob.rob_reads           280535185                       # The number of ROB reads
system.switch_cpus0.rob.rob_writes          298553753                       # The number of ROB writes
system.switch_cpus0.timesIdled                  23593                       # Number of times that the entire CPU went into an idle state and unscheduled itself
system.switch_cpus0.idleCycles                 510566                       # Total number of cycles that the CPU has spent unscheduled due to idling
system.switch_cpus0.committedInsts          100000001                       # Number of Instructions Simulated
system.switch_cpus0.committedOps            123264152                       # Number of Ops (including micro ops) Simulated
system.switch_cpus0.committedInsts_total    100000001                       # Number of Instructions Simulated
system.switch_cpus0.cpi                      1.405948                       # CPI: Cycles Per Instruction
system.switch_cpus0.cpi_total                1.405948                       # CPI: Total CPI of All Threads
system.switch_cpus0.ipc                      0.711264                       # IPC: Instructions Per Cycle
system.switch_cpus0.ipc_total                0.711264                       # IPC: Total IPC of All Threads
system.switch_cpus0.int_regfile_reads       611692004                       # number of integer regfile reads
system.switch_cpus0.int_regfile_writes      188808755                       # number of integer regfile writes
system.switch_cpus0.misc_regfile_reads      143070737                       # number of misc regfile reads
system.switch_cpus0.misc_regfile_writes         34176                       # number of misc regfile writes
system.switch_cpus1.dtb.inst_hits                   0                       # ITB inst hits
system.switch_cpus1.dtb.inst_misses                 0                       # ITB inst misses
system.switch_cpus1.dtb.read_hits                   0                       # DTB read hits
system.switch_cpus1.dtb.read_misses                 0                       # DTB read misses
system.switch_cpus1.dtb.write_hits                  0                       # DTB write hits
system.switch_cpus1.dtb.write_misses                0                       # DTB write misses
system.switch_cpus1.dtb.flush_tlb                   0                       # Number of times complete TLB was flushed
system.switch_cpus1.dtb.flush_tlb_mva               0                       # Number of times TLB was flushed by MVA
system.switch_cpus1.dtb.flush_tlb_mva_asid            0                       # Number of times TLB was flushed by MVA & ASID
system.switch_cpus1.dtb.flush_tlb_asid              0                       # Number of times TLB was flushed by ASID
system.switch_cpus1.dtb.flush_entries               0                       # Number of entries that have been flushed from TLB
system.switch_cpus1.dtb.align_faults                0                       # Number of TLB faults due to alignment restrictions
system.switch_cpus1.dtb.prefetch_faults             0                       # Number of TLB faults due to prefetch
system.switch_cpus1.dtb.domain_faults               0                       # Number of TLB faults due to domain restrictions
system.switch_cpus1.dtb.perms_faults                0                       # Number of TLB faults due to permissions restrictions
system.switch_cpus1.dtb.read_accesses               0                       # DTB read accesses
system.switch_cpus1.dtb.write_accesses              0                       # DTB write accesses
system.switch_cpus1.dtb.inst_accesses               0                       # ITB inst accesses
system.switch_cpus1.dtb.hits                        0                       # DTB hits
system.switch_cpus1.dtb.misses                      0                       # DTB misses
system.switch_cpus1.dtb.accesses                    0                       # DTB accesses
system.switch_cpus1.itb.inst_hits                   0                       # ITB inst hits
system.switch_cpus1.itb.inst_misses                 0                       # ITB inst misses
system.switch_cpus1.itb.read_hits                   0                       # DTB read hits
system.switch_cpus1.itb.read_misses                 0                       # DTB read misses
system.switch_cpus1.itb.write_hits                  0                       # DTB write hits
system.switch_cpus1.itb.write_misses                0                       # DTB write misses
system.switch_cpus1.itb.flush_tlb                   0                       # Number of times complete TLB was flushed
system.switch_cpus1.itb.flush_tlb_mva               0                       # Number of times TLB was flushed by MVA
system.switch_cpus1.itb.flush_tlb_mva_asid            0                       # Number of times TLB was flushed by MVA & ASID
system.switch_cpus1.itb.flush_tlb_asid              0                       # Number of times TLB was flushed by ASID
system.switch_cpus1.itb.flush_entries               0                       # Number of entries that have been flushed from TLB
system.switch_cpus1.itb.align_faults                0                       # Number of TLB faults due to alignment restrictions
system.switch_cpus1.itb.prefetch_faults             0                       # Number of TLB faults due to prefetch
system.switch_cpus1.itb.domain_faults               0                       # Number of TLB faults due to domain restrictions
system.switch_cpus1.itb.perms_faults                0                       # Number of TLB faults due to permissions restrictions
system.switch_cpus1.itb.read_accesses               0                       # DTB read accesses
system.switch_cpus1.itb.write_accesses              0                       # DTB write accesses
system.switch_cpus1.itb.inst_accesses               0                       # ITB inst accesses
system.switch_cpus1.itb.hits                        0                       # DTB hits
system.switch_cpus1.itb.misses                      0                       # DTB misses
system.switch_cpus1.itb.accesses                    0                       # DTB accesses
system.cpu1.workload.num_syscalls                   0                       # Number of system calls
system.switch_cpus1.numCycles               140594764                       # number of cpu cycles simulated
system.switch_cpus1.numWorkItemsStarted             0                       # number of work items this cpu started
system.switch_cpus1.numWorkItemsCompleted            0                       # number of work items this cpu completed
system.switch_cpus1.BPredUnit.lookups        23619807                       # Number of BP lookups
system.switch_cpus1.BPredUnit.condPredicted     19168441                       # Number of conditional branches predicted
system.switch_cpus1.BPredUnit.condIncorrect      2018098                       # Number of conditional branches incorrect
system.switch_cpus1.BPredUnit.BTBLookups      9368335                       # Number of BTB lookups
system.switch_cpus1.BPredUnit.BTBHits         9053088                       # Number of BTB hits
system.switch_cpus1.BPredUnit.BTBCorrect            0                       # Number of correct BTB predictions (this stat may not work properly.
system.switch_cpus1.BPredUnit.usedRAS         2536734                       # Number of times the RAS was used to get a target.
system.switch_cpus1.BPredUnit.RASInCorrect        92589                       # Number of incorrect RAS predictions.
system.switch_cpus1.fetch.icacheStallCycles    102995114                       # Number of cycles fetch is stalled on an Icache miss
system.switch_cpus1.fetch.Insts             129265276                       # Number of instructions fetch has processed
system.switch_cpus1.fetch.Branches           23619807                       # Number of branches that fetch encountered
system.switch_cpus1.fetch.predictedBranches     11589822                       # Number of branches that fetch has predicted taken
system.switch_cpus1.fetch.Cycles             28433061                       # Number of cycles fetch has run and was not squashing or blocked
system.switch_cpus1.fetch.SquashCycles        6608339                       # Number of cycles fetch has spent squashing
system.switch_cpus1.fetch.BlockedCycles       2610722                       # Number of cycles fetch has spent blocked
system.switch_cpus1.fetch.CacheLines         12038600                       # Number of cache lines fetched
system.switch_cpus1.fetch.IcacheSquashes      1586810                       # Number of outstanding Icache misses that were squashed
system.switch_cpus1.fetch.rateDist::samples    138603445                       # Number of instructions fetched each cycle (Total)
system.switch_cpus1.fetch.rateDist::mean     1.141521                       # Number of instructions fetched each cycle (Total)
system.switch_cpus1.fetch.rateDist::stdev     2.545823                       # Number of instructions fetched each cycle (Total)
system.switch_cpus1.fetch.rateDist::underflows            0      0.00%      0.00% # Number of instructions fetched each cycle (Total)
system.switch_cpus1.fetch.rateDist::0       110170384     79.49%     79.49% # Number of instructions fetched each cycle (Total)
system.switch_cpus1.fetch.rateDist::1         1991990      1.44%     80.92% # Number of instructions fetched each cycle (Total)
system.switch_cpus1.fetch.rateDist::2         3666076      2.65%     83.57% # Number of instructions fetched each cycle (Total)
system.switch_cpus1.fetch.rateDist::3         3321239      2.40%     85.96% # Number of instructions fetched each cycle (Total)
system.switch_cpus1.fetch.rateDist::4         2127851      1.54%     87.50% # Number of instructions fetched each cycle (Total)
system.switch_cpus1.fetch.rateDist::5         1714691      1.24%     88.74% # Number of instructions fetched each cycle (Total)
system.switch_cpus1.fetch.rateDist::6         1002816      0.72%     89.46% # Number of instructions fetched each cycle (Total)
system.switch_cpus1.fetch.rateDist::7         1038019      0.75%     90.21% # Number of instructions fetched each cycle (Total)
system.switch_cpus1.fetch.rateDist::8        13570379      9.79%    100.00% # Number of instructions fetched each cycle (Total)
system.switch_cpus1.fetch.rateDist::overflows            0      0.00%    100.00% # Number of instructions fetched each cycle (Total)
system.switch_cpus1.fetch.rateDist::min_value            0                       # Number of instructions fetched each cycle (Total)
system.switch_cpus1.fetch.rateDist::max_value            8                       # Number of instructions fetched each cycle (Total)
system.switch_cpus1.fetch.rateDist::total    138603445                       # Number of instructions fetched each cycle (Total)
system.switch_cpus1.fetch.branchRate         0.167999                       # Number of branch fetches per cycle
system.switch_cpus1.fetch.rate               0.919417                       # Number of inst fetches per cycle
system.switch_cpus1.decode.IdleCycles       101954379                       # Number of cycles decode is idle
system.switch_cpus1.decode.BlockedCycles      3977569                       # Number of cycles decode is blocked
system.switch_cpus1.decode.RunCycles         28065058                       # Number of cycles decode is running
system.switch_cpus1.decode.UnblockCycles        47545                       # Number of cycles decode is unblocking
system.switch_cpus1.decode.SquashCycles       4558892                       # Number of cycles decode is squashing
system.switch_cpus1.decode.BranchResolved      4069231                       # Number of times decode resolved a branch
system.switch_cpus1.decode.BranchMispred         5657                       # Number of times decode detected a branch misprediction
system.switch_cpus1.decode.DecodedInsts     156394450                       # Number of instructions handled by decode
system.switch_cpus1.decode.SquashedInsts        28446                       # Number of squashed instructions handled by decode
system.switch_cpus1.rename.SquashCycles       4558892                       # Number of cycles rename is squashing
system.switch_cpus1.rename.IdleCycles       102783782                       # Number of cycles rename is idle
system.switch_cpus1.rename.BlockCycles        1054375                       # Number of cycles rename is blocking
system.switch_cpus1.rename.serializeStallCycles      1755004                       # count of cycles rename stalled for serializing inst
system.switch_cpus1.rename.RunCycles         27264115                       # Number of cycles rename is running
system.switch_cpus1.rename.UnblockCycles      1187275                       # Number of cycles rename is unblocking
system.switch_cpus1.rename.RenamedInsts     154632444                       # Number of instructions processed by rename
system.switch_cpus1.rename.ROBFullEvents            8                       # Number of times rename has blocked due to ROB full
system.switch_cpus1.rename.IQFullEvents        222455                       # Number of times rename has blocked due to IQ full
system.switch_cpus1.rename.LSQFullEvents       513964                       # Number of times rename has blocked due to LSQ full
system.switch_cpus1.rename.RenamedOperands    218708769                       # Number of destination operands rename has renamed
system.switch_cpus1.rename.RenameLookups    720097403                       # Number of register rename lookups that rename has made
system.switch_cpus1.rename.int_rename_lookups    720097403                       # Number of integer rename lookups
system.switch_cpus1.rename.CommittedMaps    172743685                       # Number of HB maps that are committed
system.switch_cpus1.rename.UndoneMaps        45965077                       # Number of HB maps that are undone due to squashing
system.switch_cpus1.rename.serializingInsts        34019                       # count of serializing insts renamed
system.switch_cpus1.rename.tempSerializingInsts        17010                       # count of temporary serializing insts renamed
system.switch_cpus1.rename.skidInsts          4275546                       # count of insts added to the skid buffer
system.switch_cpus1.memDep0.insertedLoads     14685915                       # Number of loads inserted to the mem dependence unit.
system.switch_cpus1.memDep0.insertedStores      7262500                       # Number of stores inserted to the mem dependence unit.
system.switch_cpus1.memDep0.conflictingLoads        81606                       # Number of conflicting loads.
system.switch_cpus1.memDep0.conflictingStores      1629494                       # Number of conflicting stores.
system.switch_cpus1.iq.iqInstsAdded         151668931                       # Number of instructions added to the IQ (excludes non-spec)
system.switch_cpus1.iq.iqNonSpecInstsAdded        34020                       # Number of non-speculative instructions added to the IQ
system.switch_cpus1.iq.iqInstsIssued        140739548                       # Number of instructions issued
system.switch_cpus1.iq.iqSquashedInstsIssued       158813                       # Number of squashed instructions issued
system.switch_cpus1.iq.iqSquashedInstsExamined     26893849                       # Number of squashed instructions iterated over during squash; mainly for profiling
system.switch_cpus1.iq.iqSquashedOperandsExamined     59398512                       # Number of squashed operands that are examined and possibly removed from graph
system.switch_cpus1.iq.issued_per_cycle::samples    138603445                       # Number of insts issued each cycle
system.switch_cpus1.iq.issued_per_cycle::mean     1.015412                       # Number of insts issued each cycle
system.switch_cpus1.iq.issued_per_cycle::stdev     1.560775                       # Number of insts issued each cycle
system.switch_cpus1.iq.issued_per_cycle::underflows            0      0.00%      0.00% # Number of insts issued each cycle
system.switch_cpus1.iq.issued_per_cycle::0     79670515     57.48%     57.48% # Number of insts issued each cycle
system.switch_cpus1.iq.issued_per_cycle::1     24239895     17.49%     74.97% # Number of insts issued each cycle
system.switch_cpus1.iq.issued_per_cycle::2     12743772      9.19%     84.16% # Number of insts issued each cycle
system.switch_cpus1.iq.issued_per_cycle::3      7394216      5.33%     89.50% # Number of insts issued each cycle
system.switch_cpus1.iq.issued_per_cycle::4      8153763      5.88%     95.38% # Number of insts issued each cycle
system.switch_cpus1.iq.issued_per_cycle::5      3033575      2.19%     97.57% # Number of insts issued each cycle
system.switch_cpus1.iq.issued_per_cycle::6      2690117      1.94%     99.51% # Number of insts issued each cycle
system.switch_cpus1.iq.issued_per_cycle::7       514904      0.37%     99.88% # Number of insts issued each cycle
system.switch_cpus1.iq.issued_per_cycle::8       162688      0.12%    100.00% # Number of insts issued each cycle
system.switch_cpus1.iq.issued_per_cycle::overflows            0      0.00%    100.00% # Number of insts issued each cycle
system.switch_cpus1.iq.issued_per_cycle::min_value            0                       # Number of insts issued each cycle
system.switch_cpus1.iq.issued_per_cycle::max_value            8                       # Number of insts issued each cycle
system.switch_cpus1.iq.issued_per_cycle::total    138603445                       # Number of insts issued each cycle
system.switch_cpus1.iq.fu_full::No_OpClass            0      0.00%      0.00% # attempts to use FU when none available
system.switch_cpus1.iq.fu_full::IntAlu         562449     68.52%     68.52% # attempts to use FU when none available
system.switch_cpus1.iq.fu_full::IntMult             0      0.00%     68.52% # attempts to use FU when none available
system.switch_cpus1.iq.fu_full::IntDiv              0      0.00%     68.52% # attempts to use FU when none available
system.switch_cpus1.iq.fu_full::FloatAdd            0      0.00%     68.52% # attempts to use FU when none available
system.switch_cpus1.iq.fu_full::FloatCmp            0      0.00%     68.52% # attempts to use FU when none available
system.switch_cpus1.iq.fu_full::FloatCvt            0      0.00%     68.52% # attempts to use FU when none available
system.switch_cpus1.iq.fu_full::FloatMult            0      0.00%     68.52% # attempts to use FU when none available
system.switch_cpus1.iq.fu_full::FloatDiv            0      0.00%     68.52% # attempts to use FU when none available
system.switch_cpus1.iq.fu_full::FloatSqrt            0      0.00%     68.52% # attempts to use FU when none available
system.switch_cpus1.iq.fu_full::SimdAdd             0      0.00%     68.52% # attempts to use FU when none available
system.switch_cpus1.iq.fu_full::SimdAddAcc            0      0.00%     68.52% # attempts to use FU when none available
system.switch_cpus1.iq.fu_full::SimdAlu             0      0.00%     68.52% # attempts to use FU when none available
system.switch_cpus1.iq.fu_full::SimdCmp             0      0.00%     68.52% # attempts to use FU when none available
system.switch_cpus1.iq.fu_full::SimdCvt             0      0.00%     68.52% # attempts to use FU when none available
system.switch_cpus1.iq.fu_full::SimdMisc            0      0.00%     68.52% # attempts to use FU when none available
system.switch_cpus1.iq.fu_full::SimdMult            0      0.00%     68.52% # attempts to use FU when none available
system.switch_cpus1.iq.fu_full::SimdMultAcc            0      0.00%     68.52% # attempts to use FU when none available
system.switch_cpus1.iq.fu_full::SimdShift            0      0.00%     68.52% # attempts to use FU when none available
system.switch_cpus1.iq.fu_full::SimdShiftAcc            0      0.00%     68.52% # attempts to use FU when none available
system.switch_cpus1.iq.fu_full::SimdSqrt            0      0.00%     68.52% # attempts to use FU when none available
system.switch_cpus1.iq.fu_full::SimdFloatAdd            0      0.00%     68.52% # attempts to use FU when none available
system.switch_cpus1.iq.fu_full::SimdFloatAlu            0      0.00%     68.52% # attempts to use FU when none available
system.switch_cpus1.iq.fu_full::SimdFloatCmp            0      0.00%     68.52% # attempts to use FU when none available
system.switch_cpus1.iq.fu_full::SimdFloatCvt            0      0.00%     68.52% # attempts to use FU when none available
system.switch_cpus1.iq.fu_full::SimdFloatDiv            0      0.00%     68.52% # attempts to use FU when none available
system.switch_cpus1.iq.fu_full::SimdFloatMisc            0      0.00%     68.52% # attempts to use FU when none available
system.switch_cpus1.iq.fu_full::SimdFloatMult            0      0.00%     68.52% # attempts to use FU when none available
system.switch_cpus1.iq.fu_full::SimdFloatMultAcc            0      0.00%     68.52% # attempts to use FU when none available
system.switch_cpus1.iq.fu_full::SimdFloatSqrt            0      0.00%     68.52% # attempts to use FU when none available
system.switch_cpus1.iq.fu_full::MemRead        119720     14.58%     83.11% # attempts to use FU when none available
system.switch_cpus1.iq.fu_full::MemWrite       138681     16.89%    100.00% # attempts to use FU when none available
system.switch_cpus1.iq.fu_full::IprAccess            0      0.00%    100.00% # attempts to use FU when none available
system.switch_cpus1.iq.fu_full::InstPrefetch            0      0.00%    100.00% # attempts to use FU when none available
system.switch_cpus1.iq.FU_type_0::No_OpClass            0      0.00%      0.00% # Type of FU issued
system.switch_cpus1.iq.FU_type_0::IntAlu    118510938     84.21%     84.21% # Type of FU issued
system.switch_cpus1.iq.FU_type_0::IntMult      1990277      1.41%     85.62% # Type of FU issued
system.switch_cpus1.iq.FU_type_0::IntDiv            0      0.00%     85.62% # Type of FU issued
system.switch_cpus1.iq.FU_type_0::FloatAdd            0      0.00%     85.62% # Type of FU issued
system.switch_cpus1.iq.FU_type_0::FloatCmp            0      0.00%     85.62% # Type of FU issued
system.switch_cpus1.iq.FU_type_0::FloatCvt            0      0.00%     85.62% # Type of FU issued
system.switch_cpus1.iq.FU_type_0::FloatMult            0      0.00%     85.62% # Type of FU issued
system.switch_cpus1.iq.FU_type_0::FloatDiv            0      0.00%     85.62% # Type of FU issued
system.switch_cpus1.iq.FU_type_0::FloatSqrt            0      0.00%     85.62% # Type of FU issued
system.switch_cpus1.iq.FU_type_0::SimdAdd            0      0.00%     85.62% # Type of FU issued
system.switch_cpus1.iq.FU_type_0::SimdAddAcc            0      0.00%     85.62% # Type of FU issued
system.switch_cpus1.iq.FU_type_0::SimdAlu            0      0.00%     85.62% # Type of FU issued
system.switch_cpus1.iq.FU_type_0::SimdCmp            0      0.00%     85.62% # Type of FU issued
system.switch_cpus1.iq.FU_type_0::SimdCvt            0      0.00%     85.62% # Type of FU issued
system.switch_cpus1.iq.FU_type_0::SimdMisc            0      0.00%     85.62% # Type of FU issued
system.switch_cpus1.iq.FU_type_0::SimdMult            0      0.00%     85.62% # Type of FU issued
system.switch_cpus1.iq.FU_type_0::SimdMultAcc            0      0.00%     85.62% # Type of FU issued
system.switch_cpus1.iq.FU_type_0::SimdShift            0      0.00%     85.62% # Type of FU issued
system.switch_cpus1.iq.FU_type_0::SimdShiftAcc            0      0.00%     85.62% # Type of FU issued
system.switch_cpus1.iq.FU_type_0::SimdSqrt            0      0.00%     85.62% # Type of FU issued
system.switch_cpus1.iq.FU_type_0::SimdFloatAdd            0      0.00%     85.62% # Type of FU issued
system.switch_cpus1.iq.FU_type_0::SimdFloatAlu            0      0.00%     85.62% # Type of FU issued
system.switch_cpus1.iq.FU_type_0::SimdFloatCmp            0      0.00%     85.62% # Type of FU issued
system.switch_cpus1.iq.FU_type_0::SimdFloatCvt            0      0.00%     85.62% # Type of FU issued
system.switch_cpus1.iq.FU_type_0::SimdFloatDiv            0      0.00%     85.62% # Type of FU issued
system.switch_cpus1.iq.FU_type_0::SimdFloatMisc        17009      0.01%     85.63% # Type of FU issued
system.switch_cpus1.iq.FU_type_0::SimdFloatMult            0      0.00%     85.63% # Type of FU issued
system.switch_cpus1.iq.FU_type_0::SimdFloatMultAcc            0      0.00%     85.63% # Type of FU issued
system.switch_cpus1.iq.FU_type_0::SimdFloatSqrt            0      0.00%     85.63% # Type of FU issued
system.switch_cpus1.iq.FU_type_0::MemRead     12993923      9.23%     94.86% # Type of FU issued
system.switch_cpus1.iq.FU_type_0::MemWrite      7227401      5.14%    100.00% # Type of FU issued
system.switch_cpus1.iq.FU_type_0::IprAccess            0      0.00%    100.00% # Type of FU issued
system.switch_cpus1.iq.FU_type_0::InstPrefetch            0      0.00%    100.00% # Type of FU issued
system.switch_cpus1.iq.FU_type_0::total     140739548                       # Type of FU issued
system.switch_cpus1.iq.rate                  1.001030                       # Inst issue rate
system.switch_cpus1.iq.fu_busy_cnt             820850                       # FU busy when requested
system.switch_cpus1.iq.fu_busy_rate          0.005832                       # FU busy rate (busy events/executed inst)
system.switch_cpus1.iq.int_inst_queue_reads    421062203                       # Number of integer instruction queue reads
system.switch_cpus1.iq.int_inst_queue_writes    178597011                       # Number of integer instruction queue writes
system.switch_cpus1.iq.int_inst_queue_wakeup_accesses    137649447                       # Number of integer instruction queue wakeup accesses
system.switch_cpus1.iq.fp_inst_queue_reads            0                       # Number of floating instruction queue reads
system.switch_cpus1.iq.fp_inst_queue_writes            0                       # Number of floating instruction queue writes
system.switch_cpus1.iq.fp_inst_queue_wakeup_accesses            0                       # Number of floating instruction queue wakeup accesses
system.switch_cpus1.iq.int_alu_accesses     141560398                       # Number of integer alu accesses
system.switch_cpus1.iq.fp_alu_accesses              0                       # Number of floating point alu accesses
system.switch_cpus1.iew.lsq.thread0.forwLoads       271877                       # Number of loads that had data forwarded from stores
system.switch_cpus1.iew.lsq.thread0.invAddrLoads            0                       # Number of loads ignored due to an invalid address
system.switch_cpus1.iew.lsq.thread0.squashedLoads      3424645                       # Number of loads squashed
system.switch_cpus1.iew.lsq.thread0.ignoredResponses           19                       # Number of memory responses ignored because the instruction is squashed
system.switch_cpus1.iew.lsq.thread0.memOrderViolation          211                       # Number of memory ordering violations
system.switch_cpus1.iew.lsq.thread0.squashedStores       128486                       # Number of stores squashed
system.switch_cpus1.iew.lsq.thread0.invAddrSwpfs            0                       # Number of software prefetches ignored due to an invalid address
system.switch_cpus1.iew.lsq.thread0.blockedLoads            0                       # Number of blocked loads due to partial load-store forwarding
system.switch_cpus1.iew.lsq.thread0.rescheduledLoads            0                       # Number of loads that were rescheduled
system.switch_cpus1.iew.lsq.thread0.cacheBlocked            0                       # Number of times an access to memory failed due to the cache being blocked
system.switch_cpus1.iew.iewIdleCycles               0                       # Number of cycles IEW is idle
system.switch_cpus1.iew.iewSquashCycles       4558892                       # Number of cycles IEW is squashing
system.switch_cpus1.iew.iewBlockCycles         685140                       # Number of cycles IEW is blocking
system.switch_cpus1.iew.iewUnblockCycles       104060                       # Number of cycles IEW is unblocking
system.switch_cpus1.iew.iewDispatchedInsts    151702951                       # Number of instructions dispatched to IQ
system.switch_cpus1.iew.iewDispSquashedInsts       124194                       # Number of squashed instructions skipped by dispatch
system.switch_cpus1.iew.iewDispLoadInsts     14685915                       # Number of dispatched load instructions
system.switch_cpus1.iew.iewDispStoreInsts      7262500                       # Number of dispatched store instructions
system.switch_cpus1.iew.iewDispNonSpecInsts        17010                       # Number of dispatched non-speculative instructions
system.switch_cpus1.iew.iewIQFullEvents         89848                       # Number of times the IQ has become full, causing a stall
system.switch_cpus1.iew.iewLSQFullEvents            0                       # Number of times the LSQ has become full, causing a stall
system.switch_cpus1.iew.memOrderViolationEvents          211                       # Number of memory order violations
system.switch_cpus1.iew.predictedTakenIncorrect      1117111                       # Number of branches that were predicted taken incorrectly
system.switch_cpus1.iew.predictedNotTakenIncorrect      1135796                       # Number of branches that were predicted not taken incorrectly
system.switch_cpus1.iew.branchMispredicts      2252907                       # Number of branch mispredicts detected at execute
system.switch_cpus1.iew.iewExecutedInsts    138430201                       # Number of executed instructions
system.switch_cpus1.iew.iewExecLoadInsts     12478945                       # Number of load instructions executed
system.switch_cpus1.iew.iewExecSquashedInsts      2309346                       # Number of squashed instructions skipped in execute
system.switch_cpus1.iew.exec_swp                    0                       # number of swp insts executed
system.switch_cpus1.iew.exec_nop                    0                       # number of nop insts executed
system.switch_cpus1.iew.exec_refs            19706024                       # number of memory reference insts executed
system.switch_cpus1.iew.exec_branches        19687908                       # Number of branches executed
system.switch_cpus1.iew.exec_stores           7227079                       # Number of stores executed
system.switch_cpus1.iew.exec_rate            0.984604                       # Inst execution rate
system.switch_cpus1.iew.wb_sent             137776638                       # cumulative count of insts sent to commit
system.switch_cpus1.iew.wb_count            137649447                       # cumulative count of insts written-back
system.switch_cpus1.iew.wb_producers         80327122                       # num instructions producing a value
system.switch_cpus1.iew.wb_consumers        225691157                       # num instructions consuming a value
system.switch_cpus1.iew.wb_penalized                0                       # number of instrctions required to write to 'other' IQ
system.switch_cpus1.iew.wb_rate              0.979051                       # insts written-back per cycle
system.switch_cpus1.iew.wb_fanout            0.355916                       # average fanout of values written-back
system.switch_cpus1.iew.wb_penalized_rate            0                       # fraction of instructions written-back that wrote to 'other' IQ
system.switch_cpus1.commit.commitCommittedInsts    100605395                       # The number of committed instructions
system.switch_cpus1.commit.commitCommittedOps    123875021                       # The number of committed instructions
system.switch_cpus1.commit.commitSquashedInsts     27828345                       # The number of squashed insts skipped by commit
system.switch_cpus1.commit.commitNonSpecStalls        34020                       # The number of times commit has been forced to stall to communicate backwards
system.switch_cpus1.commit.branchMispredicts      2037960                       # The number of times a branch was mispredicted
system.switch_cpus1.commit.committed_per_cycle::samples    134044553                       # Number of insts commited each cycle
system.switch_cpus1.commit.committed_per_cycle::mean     0.924133                       # Number of insts commited each cycle
system.switch_cpus1.commit.committed_per_cycle::stdev     1.694232                       # Number of insts commited each cycle
system.switch_cpus1.commit.committed_per_cycle::underflows            0      0.00%      0.00% # Number of insts commited each cycle
system.switch_cpus1.commit.committed_per_cycle::0     83086123     61.98%     61.98% # Number of insts commited each cycle
system.switch_cpus1.commit.committed_per_cycle::1     23610314     17.61%     79.60% # Number of insts commited each cycle
system.switch_cpus1.commit.committed_per_cycle::2     11724633      8.75%     88.34% # Number of insts commited each cycle
system.switch_cpus1.commit.committed_per_cycle::3      3984390      2.97%     91.32% # Number of insts commited each cycle
system.switch_cpus1.commit.committed_per_cycle::4      4916485      3.67%     94.98% # Number of insts commited each cycle
system.switch_cpus1.commit.committed_per_cycle::5      1716295      1.28%     96.27% # Number of insts commited each cycle
system.switch_cpus1.commit.committed_per_cycle::6      1216346      0.91%     97.17% # Number of insts commited each cycle
system.switch_cpus1.commit.committed_per_cycle::7      1002956      0.75%     97.92% # Number of insts commited each cycle
system.switch_cpus1.commit.committed_per_cycle::8      2787011      2.08%    100.00% # Number of insts commited each cycle
system.switch_cpus1.commit.committed_per_cycle::overflows            0      0.00%    100.00% # Number of insts commited each cycle
system.switch_cpus1.commit.committed_per_cycle::min_value            0                       # Number of insts commited each cycle
system.switch_cpus1.commit.committed_per_cycle::max_value            8                       # Number of insts commited each cycle
system.switch_cpus1.commit.committed_per_cycle::total    134044553                       # Number of insts commited each cycle
system.switch_cpus1.commit.committedInsts    100605395                       # Number of instructions committed
system.switch_cpus1.commit.committedOps     123875021                       # Number of ops (including micro ops) committed
system.switch_cpus1.commit.swp_count                0                       # Number of s/w prefetches committed
system.switch_cpus1.commit.refs              18395284                       # Number of memory references committed
system.switch_cpus1.commit.loads             11261270                       # Number of loads committed
system.switch_cpus1.commit.membars              17010                       # Number of memory barriers committed
system.switch_cpus1.commit.branches          17880063                       # Number of branches committed
system.switch_cpus1.commit.fp_insts                 0                       # Number of committed floating point instructions.
[...]
system.cpu2.icache.overall_accesses::switch_cpus2.inst     11883728                       # number of overall (read+write) accesses
system.cpu2.icache.overall_accesses::total     11883728                       # number of overall (read+write) accesses
system.cpu2.icache.ReadReq_miss_rate::switch_cpus2.inst     0.000001                       # miss rate for ReadReq accesses
system.cpu2.icache.ReadReq_miss_rate::total     0.000001                       # miss rate for ReadReq accesses
system.cpu2.icache.demand_miss_rate::switch_cpus2.inst     0.000001                       # miss rate for demand accesses
system.cpu2.icache.demand_miss_rate::total     0.000001                       # miss rate for demand accesses
system.cpu2.icache.overall_miss_rate::switch_cpus2.inst     0.000001                       # miss rate for overall accesses
system.cpu2.icache.overall_miss_rate::total     0.000001                       # miss rate for overall accesses
system.cpu2.icache.ReadReq_avg_miss_latency::switch_cpus2.inst 190878.076923                       # average ReadReq miss latency
system.cpu2.icache.ReadReq_avg_miss_latency::total 190878.076923                       # average ReadReq miss latency
system.cpu2.icache.demand_avg_miss_latency::switch_cpus2.inst 190878.076923                       # average overall miss latency
system.cpu2.icache.demand_avg_miss_latency::total 190878.076923                       # average overall miss latency
system.cpu2.icache.overall_avg_miss_latency::switch_cpus2.inst 190878.076923                       # average overall miss latency
system.cpu2.icache.overall_avg_miss_latency::total 190878.076923                       # average overall miss latency
system.cpu2.icache.blocked_cycles::no_mshrs            0                       # number of cycles access was blocked
system.cpu2.icache.blocked_cycles::no_targets            0                       # number of cycles access was blocked
system.cpu2.icache.blocked::no_mshrs                0                       # number of cycles access was blocked
system.cpu2.icache.blocked::no_targets              0                       # number of cycles access was blocked
system.cpu2.icache.avg_blocked_cycles::no_mshrs          nan                       # average number of cycles each access was blocked
system.cpu2.icache.avg_blocked_cycles::no_targets          nan                       # average number of cycles each access was blocked
system.cpu2.icache.fast_writes                      0                       # number of fast writes performed
system.cpu2.icache.cache_copies                     0                       # number of cache copies performed
system.cpu2.icache.ReadReq_mshr_hits::switch_cpus2.inst            3                       # number of ReadReq MSHR hits
system.cpu2.icache.ReadReq_mshr_hits::total            3                       # number of ReadReq MSHR hits
system.cpu2.icache.demand_mshr_hits::switch_cpus2.inst            3                       # number of demand (read+write) MSHR hits
system.cpu2.icache.demand_mshr_hits::total            3                       # number of demand (read+write) MSHR hits
system.cpu2.icache.overall_mshr_hits::switch_cpus2.inst            3                       # number of overall MSHR hits
system.cpu2.icache.overall_mshr_hits::total            3                       # number of overall MSHR hits
system.cpu2.icache.ReadReq_mshr_misses::switch_cpus2.inst           10                       # number of ReadReq MSHR misses
system.cpu2.icache.ReadReq_mshr_misses::total           10                       # number of ReadReq MSHR misses
system.cpu2.icache.demand_mshr_misses::switch_cpus2.inst           10                       # number of demand (read+write) MSHR misses
system.cpu2.icache.demand_mshr_misses::total           10                       # number of demand (read+write) MSHR misses
system.cpu2.icache.overall_mshr_misses::switch_cpus2.inst           10                       # number of overall MSHR misses
system.cpu2.icache.overall_mshr_misses::total           10                       # number of overall MSHR misses
system.cpu2.icache.ReadReq_mshr_miss_latency::switch_cpus2.inst      1973656                       # number of ReadReq MSHR miss cycles
system.cpu2.icache.ReadReq_mshr_miss_latency::total      1973656                       # number of ReadReq MSHR miss cycles
system.cpu2.icache.demand_mshr_miss_latency::switch_cpus2.inst      1973656                       # number of demand (read+write) MSHR miss cycles
system.cpu2.icache.demand_mshr_miss_latency::total      1973656                       # number of demand (read+write) MSHR miss cycles
system.cpu2.icache.overall_mshr_miss_latency::switch_cpus2.inst      1973656                       # number of overall MSHR miss cycles
system.cpu2.icache.overall_mshr_miss_latency::total      1973656                       # number of overall MSHR miss cycles
system.cpu2.icache.ReadReq_mshr_miss_rate::switch_cpus2.inst     0.000001                       # mshr miss rate for ReadReq accesses
system.cpu2.icache.ReadReq_mshr_miss_rate::total     0.000001                       # mshr miss rate for ReadReq accesses
system.cpu2.icache.demand_mshr_miss_rate::switch_cpus2.inst     0.000001                       # mshr miss rate for demand accesses
system.cpu2.icache.demand_mshr_miss_rate::total     0.000001                       # mshr miss rate for demand accesses
system.cpu2.icache.overall_mshr_miss_rate::switch_cpus2.inst     0.000001                       # mshr miss rate for overall accesses
system.cpu2.icache.overall_mshr_miss_rate::total     0.000001                       # mshr miss rate for overall accesses
system.cpu2.icache.ReadReq_avg_mshr_miss_latency::switch_cpus2.inst 197365.600000                       # average ReadReq mshr miss latency
system.cpu2.icache.ReadReq_avg_mshr_miss_latency::total 197365.600000                       # average ReadReq mshr miss latency
system.cpu2.icache.demand_avg_mshr_miss_latency::switch_cpus2.inst 197365.600000                       # average overall mshr miss latency
system.cpu2.icache.demand_avg_mshr_miss_latency::total 197365.600000                       # average overall mshr miss latency
system.cpu2.icache.overall_avg_mshr_miss_latency::switch_cpus2.inst 197365.600000                       # average overall mshr miss latency
system.cpu2.icache.overall_avg_mshr_miss_latency::total 197365.600000                       # average overall mshr miss latency
system.cpu2.icache.no_allocate_misses               0                       # Number of misses that were no-allocate
system.cpu2.dcache.replacements                 96117                       # number of replacements
system.cpu2.dcache.tagsinuse                      256                       # Cycle average of tags in use
system.cpu2.dcache.total_refs               189921743                       # Total number of references to valid blocks.
system.cpu2.dcache.sampled_refs                 96373                       # Sample count of references to valid blocks.
system.cpu2.dcache.avg_refs               1970.694520                       # Average number of references to valid blocks.
system.cpu2.dcache.warmup_cycle                     0                       # Cycle when the warmup percentage was hit.
system.cpu2.dcache.occ_blocks::switch_cpus2.data   234.653762                       # Average occupied blocks per requestor
system.cpu2.dcache.occ_blocks::cpu2.data    21.346238                       # Average occupied blocks per requestor
system.cpu2.dcache.occ_percent::switch_cpus2.data     0.916616                       # Average percentage of cache occupancy
system.cpu2.dcache.occ_percent::cpu2.data     0.083384                       # Average percentage of cache occupancy
system.cpu2.dcache.occ_percent::total               1                       # Average percentage of cache occupancy
system.cpu2.dcache.ReadReq_hits::switch_cpus2.data     10786819                       # number of ReadReq hits
system.cpu2.dcache.ReadReq_hits::total       10786819                       # number of ReadReq hits
system.cpu2.dcache.WriteReq_hits::switch_cpus2.data      7615267                       # number of WriteReq hits
system.cpu2.dcache.WriteReq_hits::total       7615267                       # number of WriteReq hits
system.cpu2.dcache.LoadLockedReq_hits::switch_cpus2.data        16086                       # number of LoadLockedReq hits
system.cpu2.dcache.LoadLockedReq_hits::total        16086                       # number of LoadLockedReq hits
system.cpu2.dcache.StoreCondReq_hits::switch_cpus2.data        15780                       # number of StoreCondReq hits
system.cpu2.dcache.StoreCondReq_hits::total        15780                       # number of StoreCondReq hits
system.cpu2.dcache.demand_hits::switch_cpus2.data     18402086                       # number of demand (read+write) hits
system.cpu2.dcache.demand_hits::total        18402086                       # number of demand (read+write) hits
system.cpu2.dcache.overall_hits::switch_cpus2.data     18402086                       # number of overall hits
system.cpu2.dcache.overall_hits::total       18402086                       # number of overall hits
system.cpu2.dcache.ReadReq_misses::switch_cpus2.data       401616                       # number of ReadReq misses
system.cpu2.dcache.ReadReq_misses::total       401616                       # number of ReadReq misses
system.cpu2.dcache.WriteReq_misses::switch_cpus2.data           85                       # number of WriteReq misses
system.cpu2.dcache.WriteReq_misses::total           85                       # number of WriteReq misses
system.cpu2.dcache.demand_misses::switch_cpus2.data       401701                       # number of demand (read+write) misses
system.cpu2.dcache.demand_misses::total        401701                       # number of demand (read+write) misses
system.cpu2.dcache.overall_misses::switch_cpus2.data       401701                       # number of overall misses
system.cpu2.dcache.overall_misses::total       401701                       # number of overall misses
system.cpu2.dcache.ReadReq_miss_latency::switch_cpus2.data  37701152313                       # number of ReadReq miss cycles
system.cpu2.dcache.ReadReq_miss_latency::total  37701152313                       # number of ReadReq miss cycles
system.cpu2.dcache.WriteReq_miss_latency::switch_cpus2.data      8700018                       # number of WriteReq miss cycles
system.cpu2.dcache.WriteReq_miss_latency::total      8700018                       # number of WriteReq miss cycles
system.cpu2.dcache.demand_miss_latency::switch_cpus2.data  37709852331                       # number of demand (read+write) miss cycles
system.cpu2.dcache.demand_miss_latency::total  37709852331                       # number of demand (read+write) miss cycles
system.cpu2.dcache.overall_miss_latency::switch_cpus2.data  37709852331                       # number of overall miss cycles
system.cpu2.dcache.overall_miss_latency::total  37709852331                       # number of overall miss cycles
system.cpu2.dcache.ReadReq_accesses::switch_cpus2.data     11188435                       # number of ReadReq accesses(hits+misses)
system.cpu2.dcache.ReadReq_accesses::total     11188435                       # number of ReadReq accesses(hits+misses)
system.cpu2.dcache.WriteReq_accesses::switch_cpus2.data      7615352                       # number of WriteReq accesses(hits+misses)
system.cpu2.dcache.WriteReq_accesses::total      7615352                       # number of WriteReq accesses(hits+misses)
system.cpu2.dcache.LoadLockedReq_accesses::switch_cpus2.data        16086                       # number of LoadLockedReq accesses(hits+misses)
system.cpu2.dcache.LoadLockedReq_accesses::total        16086                       # number of LoadLockedReq accesses(hits+misses)
system.cpu2.dcache.StoreCondReq_accesses::switch_cpus2.data        15780                       # number of StoreCondReq accesses(hits+misses)
system.cpu2.dcache.StoreCondReq_accesses::total        15780                       # number of StoreCondReq accesses(hits+misses)
system.cpu2.dcache.demand_accesses::switch_cpus2.data     18803787                       # number of demand (read+write) accesses
system.cpu2.dcache.demand_accesses::total     18803787                       # number of demand (read+write) accesses
system.cpu2.dcache.overall_accesses::switch_cpus2.data     18803787                       # number of overall (read+write) accesses
system.cpu2.dcache.overall_accesses::total     18803787                       # number of overall (read+write) accesses
system.cpu2.dcache.ReadReq_miss_rate::switch_cpus2.data     0.035896                       # miss rate for ReadReq accesses
system.cpu2.dcache.ReadReq_miss_rate::total     0.035896                       # miss rate for ReadReq accesses
system.cpu2.dcache.WriteReq_miss_rate::switch_cpus2.data     0.000011                       # miss rate for WriteReq accesses
system.cpu2.dcache.WriteReq_miss_rate::total     0.000011                       # miss rate for WriteReq accesses
system.cpu2.dcache.demand_miss_rate::switch_cpus2.data     0.021363                       # miss rate for demand accesses
system.cpu2.dcache.demand_miss_rate::total     0.021363                       # miss rate for demand accesses
system.cpu2.dcache.overall_miss_rate::switch_cpus2.data     0.021363                       # miss rate for overall accesses
system.cpu2.dcache.overall_miss_rate::total     0.021363                       # miss rate for overall accesses
system.cpu2.dcache.ReadReq_avg_miss_latency::switch_cpus2.data 93873.631312                       # average ReadReq miss latency
system.cpu2.dcache.ReadReq_avg_miss_latency::total 93873.631312                       # average ReadReq miss latency
system.cpu2.dcache.WriteReq_avg_miss_latency::switch_cpus2.data 102353.152941                       # average WriteReq miss latency
system.cpu2.dcache.WriteReq_avg_miss_latency::total 102353.152941                       # average WriteReq miss latency
system.cpu2.dcache.demand_avg_miss_latency::switch_cpus2.data 93875.425580                       # average overall miss latency
system.cpu2.dcache.demand_avg_miss_latency::total 93875.425580                       # average overall miss latency
system.cpu2.dcache.overall_avg_miss_latency::switch_cpus2.data 93875.425580                       # average overall miss latency
system.cpu2.dcache.overall_avg_miss_latency::total 93875.425580                       # average overall miss latency
system.cpu2.dcache.blocked_cycles::no_mshrs            0                       # number of cycles access was blocked
system.cpu2.dcache.blocked_cycles::no_targets            0                       # number of cycles access was blocked
system.cpu2.dcache.blocked::no_mshrs                0                       # number of cycles access was blocked
system.cpu2.dcache.blocked::no_targets              0                       # number of cycles access was blocked
system.cpu2.dcache.avg_blocked_cycles::no_mshrs          nan                       # average number of cycles each access was blocked
system.cpu2.dcache.avg_blocked_cycles::no_targets          nan                       # average number of cycles each access was blocked
system.cpu2.dcache.fast_writes                      0                       # number of fast writes performed
system.cpu2.dcache.cache_copies                     0                       # number of cache copies performed
system.cpu2.dcache.writebacks::writebacks        22241                       # number of writebacks
system.cpu2.dcache.writebacks::total            22241                       # number of writebacks
system.cpu2.dcache.ReadReq_mshr_hits::switch_cpus2.data       305499                       # number of ReadReq MSHR hits
system.cpu2.dcache.ReadReq_mshr_hits::total       305499                       # number of ReadReq MSHR hits
system.cpu2.dcache.WriteReq_mshr_hits::switch_cpus2.data           85                       # number of WriteReq MSHR hits
system.cpu2.dcache.WriteReq_mshr_hits::total           85                       # number of WriteReq MSHR hits
system.cpu2.dcache.demand_mshr_hits::switch_cpus2.data       305584                       # number of demand (read+write) MSHR hits
system.cpu2.dcache.demand_mshr_hits::total       305584                       # number of demand (read+write) MSHR hits
system.cpu2.dcache.overall_mshr_hits::switch_cpus2.data       305584                       # number of overall MSHR hits
system.cpu2.dcache.overall_mshr_hits::total       305584                       # number of overall MSHR hits
system.cpu2.dcache.ReadReq_mshr_misses::switch_cpus2.data        96117                       # number of ReadReq MSHR misses
system.cpu2.dcache.ReadReq_mshr_misses::total        96117                       # number of ReadReq MSHR misses
system.cpu2.dcache.demand_mshr_misses::switch_cpus2.data        96117                       # number of demand (read+write) MSHR misses
system.cpu2.dcache.demand_mshr_misses::total        96117                       # number of demand (read+write) MSHR misses
system.cpu2.dcache.overall_mshr_misses::switch_cpus2.data        96117                       # number of overall MSHR misses
system.cpu2.dcache.overall_mshr_misses::total        96117                       # number of overall MSHR misses
system.cpu2.dcache.ReadReq_mshr_miss_latency::switch_cpus2.data   8230987255                       # number of ReadReq MSHR miss cycles
system.cpu2.dcache.ReadReq_mshr_miss_latency::total   8230987255                       # number of ReadReq MSHR miss cycles
system.cpu2.dcache.demand_mshr_miss_latency::switch_cpus2.data   8230987255                       # number of demand (read+write) MSHR miss cycles
system.cpu2.dcache.demand_mshr_miss_latency::total   8230987255                       # number of demand (read+write) MSHR miss cycles
system.cpu2.dcache.overall_mshr_miss_latency::switch_cpus2.data   8230987255                       # number of overall MSHR miss cycles
system.cpu2.dcache.overall_mshr_miss_latency::total   8230987255                       # number of overall MSHR miss cycles
system.cpu2.dcache.ReadReq_mshr_miss_rate::switch_cpus2.data     0.008591                       # mshr miss rate for ReadReq accesses
system.cpu2.dcache.ReadReq_mshr_miss_rate::total     0.008591                       # mshr miss rate for ReadReq accesses
system.cpu2.dcache.demand_mshr_miss_rate::switch_cpus2.data     0.005112                       # mshr miss rate for demand accesses
system.cpu2.dcache.demand_mshr_miss_rate::total     0.005112                       # mshr miss rate for demand accesses
system.cpu2.dcache.overall_mshr_miss_rate::switch_cpus2.data     0.005112                       # mshr miss rate for overall accesses
system.cpu2.dcache.overall_mshr_miss_rate::total     0.005112                       # mshr miss rate for overall accesses
system.cpu2.dcache.ReadReq_avg_mshr_miss_latency::switch_cpus2.data 85635.082816                       # average ReadReq mshr miss latency
system.cpu2.dcache.ReadReq_avg_mshr_miss_latency::total 85635.082816                       # average ReadReq mshr miss latency
system.cpu2.dcache.demand_avg_mshr_miss_latency::switch_cpus2.data 85635.082816                       # average overall mshr miss latency
system.cpu2.dcache.demand_avg_mshr_miss_latency::total 85635.082816                       # average overall mshr miss latency
system.cpu2.dcache.overall_avg_mshr_miss_latency::switch_cpus2.data 85635.082816                       # average overall mshr miss latency
system.cpu2.dcache.overall_avg_mshr_miss_latency::total 85635.082816                       # average overall mshr miss latency
system.cpu2.dcache.no_allocate_misses               0                       # Number of misses that were no-allocate

---------- End Simulation Statistics   ----------
