
---------- Begin Simulation Statistics ----------
sim_seconds                                  0.035646                       # Number of seconds simulated
sim_ticks                                 35645579919                       # Number of ticks simulated
final_tick                               565209959856                       # Number of ticks from beginning of simulation (restored from checkpoints and never reset)
sim_freq                                 1000000000000                       # Frequency of simulated ticks
host_inst_rate                                 258155                       # Simulator instruction rate (inst/s)
host_op_rate                                   325783                       # Simulator op (including micro ops) rate (op/s)
host_tick_rate                                2084419                       # Simulator tick rate (ticks/s)
host_mem_usage                               16949932                       # Number of bytes of host memory used
host_seconds                                 17100.96                       # Real time elapsed on the host
sim_insts                                  4414692883                       # Number of instructions simulated
sim_ops                                    5571206713                       # Number of ops (including micro ops) simulated
system.physmem.bytes_read::switch_cpus0.inst         1408                       # Number of bytes read from this memory
system.physmem.bytes_read::switch_cpus0.data       762624                       # Number of bytes read from this memory
system.physmem.bytes_read::switch_cpus1.inst         1664                       # Number of bytes read from this memory
system.physmem.bytes_read::switch_cpus1.data      1502848                       # Number of bytes read from this memory
system.physmem.bytes_read::switch_cpus2.inst         2048                       # Number of bytes read from this memory
system.physmem.bytes_read::switch_cpus2.data       234880                       # Number of bytes read from this memory
system.physmem.bytes_read::switch_cpus3.inst         1664                       # Number of bytes read from this memory
system.physmem.bytes_read::switch_cpus3.data       421504                       # Number of bytes read from this memory
system.physmem.bytes_read::total              2928640                       # Number of bytes read from this memory
system.physmem.bytes_inst_read::switch_cpus0.inst         1408                       # Number of instructions bytes read from this memory
system.physmem.bytes_inst_read::switch_cpus1.inst         1664                       # Number of instructions bytes read from this memory
system.physmem.bytes_inst_read::switch_cpus2.inst         2048                       # Number of instructions bytes read from this memory
system.physmem.bytes_inst_read::switch_cpus3.inst         1664                       # Number of instructions bytes read from this memory
system.physmem.bytes_inst_read::total            6784                       # Number of instructions bytes read from this memory
system.physmem.bytes_written::writebacks      1605120                       # Number of bytes written to this memory
system.physmem.bytes_written::total           1605120                       # Number of bytes written to this memory
system.physmem.num_reads::switch_cpus0.inst           11                       # Number of read requests responded to by this memory
system.physmem.num_reads::switch_cpus0.data         5958                       # Number of read requests responded to by this memory
system.physmem.num_reads::switch_cpus1.inst           13                       # Number of read requests responded to by this memory
system.physmem.num_reads::switch_cpus1.data        11741                       # Number of read requests responded to by this memory
system.physmem.num_reads::switch_cpus2.inst           16                       # Number of read requests responded to by this memory
system.physmem.num_reads::switch_cpus2.data         1835                       # Number of read requests responded to by this memory
system.physmem.num_reads::switch_cpus3.inst           13                       # Number of read requests responded to by this memory
system.physmem.num_reads::switch_cpus3.data         3293                       # Number of read requests responded to by this memory
system.physmem.num_reads::total                 22880                       # Number of read requests responded to by this memory
system.physmem.num_writes::writebacks           12540                       # Number of write requests responded to by this memory
system.physmem.num_writes::functional               0                       # Number of write requests responded to by this memory
system.physmem.num_writes::interrupt                0                       # Number of write requests responded to by this memory
system.physmem.num_writes::switch_cpus0.dtb.walker            0                       # Number of write requests responded to by this memory
system.physmem.num_writes::switch_cpus0.itb.walker            0                       # Number of write requests responded to by this memory
system.physmem.num_writes::switch_cpus0.inst            0                       # Number of write requests responded to by this memory
system.physmem.num_writes::switch_cpus0.data            0                       # Number of write requests responded to by this memory
system.physmem.num_writes::switch_cpus1.dtb.walker            0                       # Number of write requests responded to by this memory
system.physmem.num_writes::switch_cpus1.itb.walker            0                       # Number of write requests responded to by this memory
system.physmem.num_writes::switch_cpus1.inst            0                       # Number of write requests responded to by this memory
system.physmem.num_writes::switch_cpus1.data            0                       # Number of write requests responded to by this memory
system.physmem.num_writes::switch_cpus2.dtb.walker            0                       # Number of write requests responded to by this memory
system.physmem.num_writes::switch_cpus2.itb.walker            0                       # Number of write requests responded to by this memory
system.physmem.num_writes::switch_cpus2.inst            0                       # Number of write requests responded to by this memory
system.physmem.num_writes::switch_cpus2.data            0                       # Number of write requests responded to by this memory
system.physmem.num_writes::switch_cpus3.dtb.walker            0                       # Number of write requests responded to by this memory
system.physmem.num_writes::switch_cpus3.itb.walker            0                       # Number of write requests responded to by this memory
system.physmem.num_writes::switch_cpus3.inst            0                       # Number of write requests responded to by this memory
system.physmem.num_writes::switch_cpus3.data            0                       # Number of write requests responded to by this memory
system.physmem.num_writes::cpu0.dtb.walker            0                       # Number of write requests responded to by this memory
system.physmem.num_writes::cpu0.itb.walker            0                       # Number of write requests responded to by this memory
system.physmem.num_writes::cpu0.inst                0                       # Number of write requests responded to by this memory
system.physmem.num_writes::cpu0.data                0                       # Number of write requests responded to by this memory
system.physmem.num_writes::cpu1.dtb.walker            0                       # Number of write requests responded to by this memory
system.physmem.num_writes::cpu1.itb.walker            0                       # Number of write requests responded to by this memory
system.physmem.num_writes::cpu1.inst                0                       # Number of write requests responded to by this memory
system.physmem.num_writes::cpu1.data                0                       # Number of write requests responded to by this memory
system.physmem.num_writes::cpu2.dtb.walker            0                       # Number of write requests responded to by this memory
system.physmem.num_writes::cpu2.itb.walker            0                       # Number of write requests responded to by this memory
system.physmem.num_writes::cpu2.inst                0                       # Number of write requests responded to by this memory
system.physmem.num_writes::cpu2.data                0                       # Number of write requests responded to by this memory
system.physmem.num_writes::cpu3.dtb.walker            0                       # Number of write requests responded to by this memory
system.physmem.num_writes::cpu3.itb.walker            0                       # Number of write requests responded to by this memory
system.physmem.num_writes::cpu3.inst                0                       # Number of write requests responded to by this memory
system.physmem.num_writes::cpu3.data                0                       # Number of write requests responded to by this memory
system.physmem.num_writes::total                12540                       # Number of write requests responded to by this memory
system.physmem.bw_read::switch_cpus0.inst        39500                       # Total read bandwidth from this memory (bytes/s)
system.physmem.bw_read::switch_cpus0.data     21394630                       # Total read bandwidth from this memory (bytes/s)
system.physmem.bw_read::switch_cpus1.inst        46682                       # Total read bandwidth from this memory (bytes/s)
system.physmem.bw_read::switch_cpus1.data     42160851                       # Total read bandwidth from this memory (bytes/s)
system.physmem.bw_read::switch_cpus2.inst        57455                       # Total read bandwidth from this memory (bytes/s)
system.physmem.bw_read::switch_cpus2.data      6589316                       # Total read bandwidth from this memory (bytes/s)
system.physmem.bw_read::switch_cpus3.inst        46682                       # Total read bandwidth from this memory (bytes/s)
system.physmem.bw_read::switch_cpus3.data     11824860                       # Total read bandwidth from this memory (bytes/s)
system.physmem.bw_read::total                82159976                       # Total read bandwidth from this memory (bytes/s)
system.physmem.bw_inst_read::switch_cpus0.inst        39500                       # Instruction read bandwidth from this memory (bytes/s)
system.physmem.bw_inst_read::switch_cpus1.inst        46682                       # Instruction read bandwidth from this memory (bytes/s)
system.physmem.bw_inst_read::switch_cpus2.inst        57455                       # Instruction read bandwidth from this memory (bytes/s)
system.physmem.bw_inst_read::switch_cpus3.inst        46682                       # Instruction read bandwidth from this memory (bytes/s)
system.physmem.bw_inst_read::total             190318                       # Instruction read bandwidth from this memory (bytes/s)
system.physmem.bw_write::writebacks          45029987                       # Write bandwidth from this memory (bytes/s)
system.physmem.bw_write::total               45029987                       # Write bandwidth from this memory (bytes/s)
system.physmem.bw_total::writebacks          45029987                       # Total bandwidth to/from this memory (bytes/s)
system.physmem.bw_total::switch_cpus0.inst        39500                       # Total bandwidth to/from this memory (bytes/s)
system.physmem.bw_total::switch_cpus0.data     21394630                       # Total bandwidth to/from this memory (bytes/s)
system.physmem.bw_total::switch_cpus1.inst        46682                       # Total bandwidth to/from this memory (bytes/s)
system.physmem.bw_total::switch_cpus1.data     42160851                       # Total bandwidth to/from this memory (bytes/s)
system.physmem.bw_total::switch_cpus2.inst        57455                       # Total bandwidth to/from this memory (bytes/s)
system.physmem.bw_total::switch_cpus2.data      6589316                       # Total bandwidth to/from this memory (bytes/s)
system.physmem.bw_total::switch_cpus3.inst        46682                       # Total bandwidth to/from this memory (bytes/s)
system.physmem.bw_total::switch_cpus3.data     11824860                       # Total bandwidth to/from this memory (bytes/s)
system.physmem.bw_total::total              127189963                       # Total bandwidth to/from this memory (bytes/s)
system.switch_cpus0.dtb.inst_hits                   0                       # ITB inst hits
system.switch_cpus0.dtb.inst_misses                 0                       # ITB inst misses
system.switch_cpus0.dtb.read_hits                   0                       # DTB read hits
system.switch_cpus0.dtb.read_misses                 0                       # DTB read misses
system.switch_cpus0.dtb.write_hits                  0                       # DTB write hits
system.switch_cpus0.dtb.write_misses                0                       # DTB write misses
system.switch_cpus0.dtb.flush_tlb                   0                       # Number of times complete TLB was flushed
system.switch_cpus0.dtb.flush_tlb_mva               0                       # Number of times TLB was flushed by MVA
system.switch_cpus0.dtb.flush_tlb_mva_asid            0                       # Number of times TLB was flushed by MVA & ASID
system.switch_cpus0.dtb.flush_tlb_asid              0                       # Number of times TLB was flushed by ASID
system.switch_cpus0.dtb.flush_entries               0                       # Number of entries that have been flushed from TLB
system.switch_cpus0.dtb.align_faults                0                       # Number of TLB faults due to alignment restrictions
system.switch_cpus0.dtb.prefetch_faults             0                       # Number of TLB faults due to prefetch
system.switch_cpus0.dtb.domain_faults               0                       # Number of TLB faults due to domain restrictions
system.switch_cpus0.dtb.perms_faults                0                       # Number of TLB faults due to permissions restrictions
system.switch_cpus0.dtb.read_accesses               0                       # DTB read accesses
system.switch_cpus0.dtb.write_accesses              0                       # DTB write accesses
system.switch_cpus0.dtb.inst_accesses               0                       # ITB inst accesses
system.switch_cpus0.dtb.hits                        0                       # DTB hits
system.switch_cpus0.dtb.misses                      0                       # DTB misses
system.switch_cpus0.dtb.accesses                    0                       # DTB accesses
system.switch_cpus0.itb.inst_hits                   0                       # ITB inst hits
system.switch_cpus0.itb.inst_misses                 0                       # ITB inst misses
system.switch_cpus0.itb.read_hits                   0                       # DTB read hits
system.switch_cpus0.itb.read_misses                 0                       # DTB read misses
system.switch_cpus0.itb.write_hits                  0                       # DTB write hits
system.switch_cpus0.itb.write_misses                0                       # DTB write misses
system.switch_cpus0.itb.flush_tlb                   0                       # Number of times complete TLB was flushed
system.switch_cpus0.itb.flush_tlb_mva               0                       # Number of times TLB was flushed by MVA
system.switch_cpus0.itb.flush_tlb_mva_asid            0                       # Number of times TLB was flushed by MVA & ASID
system.switch_cpus0.itb.flush_tlb_asid              0                       # Number of times TLB was flushed by ASID
system.switch_cpus0.itb.flush_entries               0                       # Number of entries that have been flushed from TLB
system.switch_cpus0.itb.align_faults                0                       # Number of TLB faults due to alignment restrictions
system.switch_cpus0.itb.prefetch_faults             0                       # Number of TLB faults due to prefetch
system.switch_cpus0.itb.domain_faults               0                       # Number of TLB faults due to domain restrictions
system.switch_cpus0.itb.perms_faults                0                       # Number of TLB faults due to permissions restrictions
system.switch_cpus0.itb.read_accesses               0                       # DTB read accesses
system.switch_cpus0.itb.write_accesses              0                       # DTB write accesses
system.switch_cpus0.itb.inst_accesses               0                       # ITB inst accesses
system.switch_cpus0.itb.hits                        0                       # DTB hits
system.switch_cpus0.itb.misses                      0                       # DTB misses
system.switch_cpus0.itb.accesses                    0                       # DTB accesses
system.cpu0.workload.num_syscalls                   0                       # Number of system calls
system.switch_cpus0.numCycles                85481008                       # number of cpu cycles simulated
system.switch_cpus0.numWorkItemsStarted             0                       # number of work items this cpu started
system.switch_cpus0.numWorkItemsCompleted            0                       # number of work items this cpu completed
system.switch_cpus0.BPredUnit.lookups        31006213                       # Number of BP lookups
system.switch_cpus0.BPredUnit.condPredicted     25431693                       # Number of conditional branches predicted
system.switch_cpus0.BPredUnit.condIncorrect      2018969                       # Number of conditional branches incorrect
system.switch_cpus0.BPredUnit.BTBLookups     13063461                       # Number of BTB lookups
system.switch_cpus0.BPredUnit.BTBHits        12085841                       # Number of BTB hits
system.switch_cpus0.BPredUnit.BTBCorrect            0                       # Number of correct BTB predictions (this stat may not work properly.
system.switch_cpus0.BPredUnit.usedRAS         3158659                       # Number of times the RAS was used to get a target.
system.switch_cpus0.BPredUnit.RASInCorrect        87355                       # Number of incorrect RAS predictions.
system.switch_cpus0.fetch.icacheStallCycles     32044431                       # Number of cycles fetch is stalled on an Icache miss
system.switch_cpus0.fetch.Insts             170386295                       # Number of instructions fetch has processed
system.switch_cpus0.fetch.Branches           31006213                       # Number of branches that fetch encountered
system.switch_cpus0.fetch.predictedBranches     15244500                       # Number of branches that fetch has predicted taken
system.switch_cpus0.fetch.Cycles             36605151                       # Number of cycles fetch has run and was not squashing or blocked
system.switch_cpus0.fetch.SquashCycles       10821652                       # Number of cycles fetch has spent squashing
system.switch_cpus0.fetch.BlockedCycles       6480479                       # Number of cycles fetch has spent blocked
system.switch_cpus0.fetch.PendingTrapStallCycles            1                       # Number of stall cycles due to pending traps
system.switch_cpus0.fetch.CacheLines         15674659                       # Number of cache lines fetched
system.switch_cpus0.fetch.IcacheSquashes       806372                       # Number of outstanding Icache misses that were squashed
system.switch_cpus0.fetch.rateDist::samples     83900411                       # Number of instructions fetched each cycle (Total)
system.switch_cpus0.fetch.rateDist::mean     2.495571                       # Number of instructions fetched each cycle (Total)
system.switch_cpus0.fetch.rateDist::stdev     3.336625                       # Number of instructions fetched each cycle (Total)
system.switch_cpus0.fetch.rateDist::underflows            0      0.00%      0.00% # Number of instructions fetched each cycle (Total)
system.switch_cpus0.fetch.rateDist::0        47295260     56.37%     56.37% # Number of instructions fetched each cycle (Total)
system.switch_cpus0.fetch.rateDist::1         3657581      4.36%     60.73% # Number of instructions fetched each cycle (Total)
system.switch_cpus0.fetch.rateDist::2         3197463      3.81%     64.54% # Number of instructions fetched each cycle (Total)
system.switch_cpus0.fetch.rateDist::3         3441459      4.10%     68.64% # Number of instructions fetched each cycle (Total)
system.switch_cpus0.fetch.rateDist::4         2993978      3.57%     72.21% # Number of instructions fetched each cycle (Total)
system.switch_cpus0.fetch.rateDist::5         1572301      1.87%     74.09% # Number of instructions fetched each cycle (Total)
system.switch_cpus0.fetch.rateDist::6         1026864      1.22%     75.31% # Number of instructions fetched each cycle (Total)
system.switch_cpus0.fetch.rateDist::7         2720060      3.24%     78.55% # Number of instructions fetched each cycle (Total)
system.switch_cpus0.fetch.rateDist::8        17995445     21.45%    100.00% # Number of instructions fetched each cycle (Total)
system.switch_cpus0.fetch.rateDist::overflows            0      0.00%    100.00% # Number of instructions fetched each cycle (Total)
system.switch_cpus0.fetch.rateDist::min_value            0                       # Number of instructions fetched each cycle (Total)
system.switch_cpus0.fetch.rateDist::max_value            8                       # Number of instructions fetched each cycle (Total)
system.switch_cpus0.fetch.rateDist::total     83900411                       # Number of instructions fetched each cycle (Total)
system.switch_cpus0.fetch.branchRate         0.362726                       # Number of branch fetches per cycle
system.switch_cpus0.fetch.rate               1.993265                       # Number of inst fetches per cycle
system.switch_cpus0.decode.IdleCycles        33705790                       # Number of cycles decode is idle
system.switch_cpus0.decode.BlockedCycles      6063404                       # Number of cycles decode is blocked
system.switch_cpus0.decode.RunCycles         34821429                       # Number of cycles decode is running
system.switch_cpus0.decode.UnblockCycles       545889                       # Number of cycles decode is unblocking
system.switch_cpus0.decode.SquashCycles       8763890                       # Number of cycles decode is squashing
system.switch_cpus0.decode.BranchResolved      5080974                       # Number of times decode resolved a branch
system.switch_cpus0.decode.BranchMispred         6576                       # Number of times decode detected a branch misprediction
system.switch_cpus0.decode.DecodedInsts     202066685                       # Number of instructions handled by decode
system.switch_cpus0.decode.SquashedInsts        51122                       # Number of squashed instructions handled by decode
system.switch_cpus0.rename.SquashCycles       8763890                       # Number of cycles rename is squashing
system.switch_cpus0.rename.IdleCycles        35378305                       # Number of cycles rename is idle
system.switch_cpus0.rename.BlockCycles        2577929                       # Number of cycles rename is blocking
system.switch_cpus0.rename.serializeStallCycles       779397                       # count of cycles rename stalled for serializing inst
system.switch_cpus0.rename.RunCycles         33660217                       # Number of cycles rename is running
system.switch_cpus0.rename.UnblockCycles      2740665                       # Number of cycles rename is unblocking
system.switch_cpus0.rename.RenamedInsts     195200749                       # Number of instructions processed by rename
system.switch_cpus0.rename.ROBFullEvents        12152                       # Number of times rename has blocked due to ROB full
system.switch_cpus0.rename.IQFullEvents       1715944                       # Number of times rename has blocked due to IQ full
system.switch_cpus0.rename.LSQFullEvents       749146                       # Number of times rename has blocked due to LSQ full
system.switch_cpus0.rename.FullRegisterEvents          112                       # Number of times there has been no free registers
system.switch_cpus0.rename.RenamedOperands    271181321                       # Number of destination operands rename has renamed
system.switch_cpus0.rename.RenameLookups    910222967                       # Number of register rename lookups that rename has made
system.switch_cpus0.rename.int_rename_lookups    910222967                       # Number of integer rename lookups
system.switch_cpus0.rename.CommittedMaps    168259218                       # Number of HB maps that are committed
system.switch_cpus0.rename.UndoneMaps       102922057                       # Number of HB maps that are undone due to squashing
system.switch_cpus0.rename.serializingInsts        33765                       # count of serializing insts renamed
system.switch_cpus0.rename.tempSerializingInsts        17722                       # count of temporary serializing insts renamed
system.switch_cpus0.rename.skidInsts          7264411                       # count of insts added to the skid buffer
system.switch_cpus0.memDep0.insertedLoads     19240393                       # Number of loads inserted to the mem dependence unit.
system.switch_cpus0.memDep0.insertedStores     10029570                       # Number of stores inserted to the mem dependence unit.
system.switch_cpus0.memDep0.conflictingLoads       241352                       # Number of conflicting loads.
system.switch_cpus0.memDep0.conflictingStores      3275999                       # Number of conflicting stores.
system.switch_cpus0.iq.iqInstsAdded         184014834                       # Number of instructions added to the IQ (excludes non-spec)
system.switch_cpus0.iq.iqNonSpecInstsAdded        33724                       # Number of non-speculative instructions added to the IQ
system.switch_cpus0.iq.iqInstsIssued        147815287                       # Number of instructions issued
system.switch_cpus0.iq.iqSquashedInstsIssued       286765                       # Number of squashed instructions issued
system.switch_cpus0.iq.iqSquashedInstsExamined     61104590                       # Number of squashed instructions iterated over during squash; mainly for profiling
system.switch_cpus0.iq.iqSquashedOperandsExamined    186767619                       # Number of squashed operands that are examined and possibly removed from graph
system.switch_cpus0.iq.iqSquashedNonSpecRemoved         1680                       # Number of squashed non-spec instructions that were removed
system.switch_cpus0.iq.issued_per_cycle::samples     83900411                       # Number of insts issued each cycle
system.switch_cpus0.iq.issued_per_cycle::mean     1.761795                       # Number of insts issued each cycle
system.switch_cpus0.iq.issued_per_cycle::stdev     1.908577                       # Number of insts issued each cycle
system.switch_cpus0.iq.issued_per_cycle::underflows            0      0.00%      0.00% # Number of insts issued each cycle
system.switch_cpus0.iq.issued_per_cycle::0     29662880     35.35%     35.35% # Number of insts issued each cycle
system.switch_cpus0.iq.issued_per_cycle::1     17827106     21.25%     56.60% # Number of insts issued each cycle
system.switch_cpus0.iq.issued_per_cycle::2     12024822     14.33%     70.94% # Number of insts issued each cycle
system.switch_cpus0.iq.issued_per_cycle::3      7652988      9.12%     80.06% # Number of insts issued each cycle
system.switch_cpus0.iq.issued_per_cycle::4      7517758      8.96%     89.02% # Number of insts issued each cycle
system.switch_cpus0.iq.issued_per_cycle::5      4429770      5.28%     94.30% # Number of insts issued each cycle
system.switch_cpus0.iq.issued_per_cycle::6      3389585      4.04%     98.34% # Number of insts issued each cycle
system.switch_cpus0.iq.issued_per_cycle::7       741835      0.88%     99.22% # Number of insts issued each cycle
system.switch_cpus0.iq.issued_per_cycle::8       653667      0.78%    100.00% # Number of insts issued each cycle
system.switch_cpus0.iq.issued_per_cycle::overflows            0      0.00%    100.00% # Number of insts issued each cycle
system.switch_cpus0.iq.issued_per_cycle::min_value            0                       # Number of insts issued each cycle
system.switch_cpus0.iq.issued_per_cycle::max_value            8                       # Number of insts issued each cycle
system.switch_cpus0.iq.issued_per_cycle::total     83900411                       # Number of insts issued each cycle
system.switch_cpus0.iq.fu_full::No_OpClass            0      0.00%      0.00% # attempts to use FU when none available
system.switch_cpus0.iq.fu_full::IntAlu        1083492     70.04%     70.04% # attempts to use FU when none available
system.switch_cpus0.iq.fu_full::IntMult            41      0.00%     70.05% # attempts to use FU when none available
system.switch_cpus0.iq.fu_full::IntDiv              0      0.00%     70.05% # attempts to use FU when none available
system.switch_cpus0.iq.fu_full::FloatAdd            0      0.00%     70.05% # attempts to use FU when none available
system.switch_cpus0.iq.fu_full::FloatCmp            0      0.00%     70.05% # attempts to use FU when none available
system.switch_cpus0.iq.fu_full::FloatCvt            0      0.00%     70.05% # attempts to use FU when none available
system.switch_cpus0.iq.fu_full::FloatMult            0      0.00%     70.05% # attempts to use FU when none available
system.switch_cpus0.iq.fu_full::FloatDiv            0      0.00%     70.05% # attempts to use FU when none available
system.switch_cpus0.iq.fu_full::FloatSqrt            0      0.00%     70.05% # attempts to use FU when none available
system.switch_cpus0.iq.fu_full::SimdAdd             0      0.00%     70.05% # attempts to use FU when none available
system.switch_cpus0.iq.fu_full::SimdAddAcc            0      0.00%     70.05% # attempts to use FU when none available
system.switch_cpus0.iq.fu_full::SimdAlu             0      0.00%     70.05% # attempts to use FU when none available
system.switch_cpus0.iq.fu_full::SimdCmp             0      0.00%     70.05% # attempts to use FU when none available
system.switch_cpus0.iq.fu_full::SimdCvt             0      0.00%     70.05% # attempts to use FU when none available
system.switch_cpus0.iq.fu_full::SimdMisc            0      0.00%     70.05% # attempts to use FU when none available
system.switch_cpus0.iq.fu_full::SimdMult            0      0.00%     70.05% # attempts to use FU when none available
system.switch_cpus0.iq.fu_full::SimdMultAcc            0      0.00%     70.05% # attempts to use FU when none available
system.switch_cpus0.iq.fu_full::SimdShift            0      0.00%     70.05% # attempts to use FU when none available
system.switch_cpus0.iq.fu_full::SimdShiftAcc            0      0.00%     70.05% # attempts to use FU when none available
system.switch_cpus0.iq.fu_full::SimdSqrt            0      0.00%     70.05% # attempts to use FU when none available
system.switch_cpus0.iq.fu_full::SimdFloatAdd            0      0.00%     70.05% # attempts to use FU when none available
system.switch_cpus0.iq.fu_full::SimdFloatAlu            0      0.00%     70.05% # attempts to use FU when none available
system.switch_cpus0.iq.fu_full::SimdFloatCmp            0      0.00%     70.05% # attempts to use FU when none available
system.switch_cpus0.iq.fu_full::SimdFloatCvt            0      0.00%     70.05% # attempts to use FU when none available
system.switch_cpus0.iq.fu_full::SimdFloatDiv            0      0.00%     70.05% # attempts to use FU when none available
system.switch_cpus0.iq.fu_full::SimdFloatMisc            0      0.00%     70.05% # attempts to use FU when none available
system.switch_cpus0.iq.fu_full::SimdFloatMult            0      0.00%     70.05% # attempts to use FU when none available
system.switch_cpus0.iq.fu_full::SimdFloatMultAcc            0      0.00%     70.05% # attempts to use FU when none available
system.switch_cpus0.iq.fu_full::SimdFloatSqrt            0      0.00%     70.05% # attempts to use FU when none available
system.switch_cpus0.iq.fu_full::MemRead        204024     13.19%     83.24% # attempts to use FU when none available
system.switch_cpus0.iq.fu_full::MemWrite       259301     16.76%    100.00% # attempts to use FU when none available
system.switch_cpus0.iq.fu_full::IprAccess            0      0.00%    100.00% # attempts to use FU when none available
system.switch_cpus0.iq.fu_full::InstPrefetch            0      0.00%    100.00% # attempts to use FU when none available
system.switch_cpus0.iq.FU_type_0::No_OpClass            0      0.00%      0.00% # Type of FU issued
system.switch_cpus0.iq.FU_type_0::IntAlu    121611134     82.27%     82.27% # Type of FU issued
system.switch_cpus0.iq.FU_type_0::IntMult      2018294      1.37%     83.64% # Type of FU issued
system.switch_cpus0.iq.FU_type_0::IntDiv            0      0.00%     83.64% # Type of FU issued
system.switch_cpus0.iq.FU_type_0::FloatAdd            0      0.00%     83.64% # Type of FU issued
system.switch_cpus0.iq.FU_type_0::FloatCmp            0      0.00%     83.64% # Type of FU issued
system.switch_cpus0.iq.FU_type_0::FloatCvt            0      0.00%     83.64% # Type of FU issued
system.switch_cpus0.iq.FU_type_0::FloatMult            0      0.00%     83.64% # Type of FU issued
system.switch_cpus0.iq.FU_type_0::FloatDiv            0      0.00%     83.64% # Type of FU issued
system.switch_cpus0.iq.FU_type_0::FloatSqrt            0      0.00%     83.64% # Type of FU issued
system.switch_cpus0.iq.FU_type_0::SimdAdd            0      0.00%     83.64% # Type of FU issued
system.switch_cpus0.iq.FU_type_0::SimdAddAcc            0      0.00%     83.64% # Type of FU issued
system.switch_cpus0.iq.FU_type_0::SimdAlu            0      0.00%     83.64% # Type of FU issued
system.switch_cpus0.iq.FU_type_0::SimdCmp            0      0.00%     83.64% # Type of FU issued
system.switch_cpus0.iq.FU_type_0::SimdCvt            0      0.00%     83.64% # Type of FU issued
system.switch_cpus0.iq.FU_type_0::SimdMisc            0      0.00%     83.64% # Type of FU issued
system.switch_cpus0.iq.FU_type_0::SimdMult            0      0.00%     83.64% # Type of FU issued
system.switch_cpus0.iq.FU_type_0::SimdMultAcc            0      0.00%     83.64% # Type of FU issued
system.switch_cpus0.iq.FU_type_0::SimdShift            0      0.00%     83.64% # Type of FU issued
system.switch_cpus0.iq.FU_type_0::SimdShiftAcc            0      0.00%     83.64% # Type of FU issued
system.switch_cpus0.iq.FU_type_0::SimdSqrt            0      0.00%     83.64% # Type of FU issued
system.switch_cpus0.iq.FU_type_0::SimdFloatAdd            0      0.00%     83.64% # Type of FU issued
system.switch_cpus0.iq.FU_type_0::SimdFloatAlu            0      0.00%     83.64% # Type of FU issued
system.switch_cpus0.iq.FU_type_0::SimdFloatCmp            0      0.00%     83.64% # Type of FU issued
system.switch_cpus0.iq.FU_type_0::SimdFloatCvt            0      0.00%     83.64% # Type of FU issued
system.switch_cpus0.iq.FU_type_0::SimdFloatDiv            0      0.00%     83.64% # Type of FU issued
system.switch_cpus0.iq.FU_type_0::SimdFloatMisc        16022      0.01%     83.65% # Type of FU issued
system.switch_cpus0.iq.FU_type_0::SimdFloatMult            0      0.00%     83.65% # Type of FU issued
system.switch_cpus0.iq.FU_type_0::SimdFloatMultAcc            0      0.00%     83.65% # Type of FU issued
system.switch_cpus0.iq.FU_type_0::SimdFloatSqrt            0      0.00%     83.65% # Type of FU issued
system.switch_cpus0.iq.FU_type_0::MemRead     15742233     10.65%     94.30% # Type of FU issued
system.switch_cpus0.iq.FU_type_0::MemWrite      8427604      5.70%    100.00% # Type of FU issued
system.switch_cpus0.iq.FU_type_0::IprAccess            0      0.00%    100.00% # Type of FU issued
system.switch_cpus0.iq.FU_type_0::InstPrefetch            0      0.00%    100.00% # Type of FU issued
system.switch_cpus0.iq.FU_type_0::total     147815287                       # Type of FU issued
system.switch_cpus0.iq.rate                  1.729218                       # Inst issue rate
system.switch_cpus0.iq.fu_busy_cnt            1546858                       # FU busy when requested
system.switch_cpus0.iq.fu_busy_rate          0.010465                       # FU busy rate (busy events/executed inst)
system.switch_cpus0.iq.int_inst_queue_reads    381364604                       # Number of integer instruction queue reads
system.switch_cpus0.iq.int_inst_queue_writes    245154208                       # Number of integer instruction queue writes
system.switch_cpus0.iq.int_inst_queue_wakeup_accesses    143670014                       # Number of integer instruction queue wakeup accesses
system.switch_cpus0.iq.fp_inst_queue_reads            0                       # Number of floating instruction queue reads
system.switch_cpus0.iq.fp_inst_queue_writes            0                       # Number of floating instruction queue writes
system.switch_cpus0.iq.fp_inst_queue_wakeup_accesses            0                       # Number of floating instruction queue wakeup accesses
system.switch_cpus0.iq.int_alu_accesses     149362145                       # Number of integer alu accesses
system.switch_cpus0.iq.fp_alu_accesses              0                       # Number of floating point alu accesses
system.switch_cpus0.iew.lsq.thread0.forwLoads       263309                       # Number of loads that had data forwarded from stores
system.switch_cpus0.iew.lsq.thread0.invAddrLoads            0                       # Number of loads ignored due to an invalid address
system.switch_cpus0.iew.lsq.thread0.squashedLoads      7028264                       # Number of loads squashed
system.switch_cpus0.iew.lsq.thread0.ignoredResponses          477                       # Number of memory responses ignored because the instruction is squashed
system.switch_cpus0.iew.lsq.thread0.memOrderViolation         1074                       # Number of memory ordering violations
system.switch_cpus0.iew.lsq.thread0.squashedStores      2287897                       # Number of stores squashed
system.switch_cpus0.iew.lsq.thread0.invAddrSwpfs            0                       # Number of software prefetches ignored due to an invalid address
system.switch_cpus0.iew.lsq.thread0.blockedLoads            0                       # Number of blocked loads due to partial load-store forwarding
system.switch_cpus0.iew.lsq.thread0.rescheduledLoads          575                       # Number of loads that were rescheduled
system.switch_cpus0.iew.lsq.thread0.cacheBlocked            0                       # Number of times an access to memory failed due to the cache being blocked
system.switch_cpus0.iew.iewIdleCycles               0                       # Number of cycles IEW is idle
system.switch_cpus0.iew.iewSquashCycles       8763890                       # Number of cycles IEW is squashing
system.switch_cpus0.iew.iewBlockCycles        1837329                       # Number of cycles IEW is blocking
system.switch_cpus0.iew.iewUnblockCycles       156553                       # Number of cycles IEW is unblocking
system.switch_cpus0.iew.iewDispatchedInsts    184048558                       # Number of instructions dispatched to IQ
system.switch_cpus0.iew.iewDispSquashedInsts       309623                       # Number of squashed instructions skipped by dispatch
system.switch_cpus0.iew.iewDispLoadInsts     19240393                       # Number of dispatched load instructions
system.switch_cpus0.iew.iewDispStoreInsts     10029570                       # Number of dispatched store instructions
system.switch_cpus0.iew.iewDispNonSpecInsts        17702                       # Number of dispatched non-speculative instructions
system.switch_cpus0.iew.iewIQFullEvents        112688                       # Number of times the IQ has become full, causing a stall
system.switch_cpus0.iew.iewLSQFullEvents         6654                       # Number of times the LSQ has become full, causing a stall
system.switch_cpus0.iew.memOrderViolationEvents         1074                       # Number of memory order violations
system.switch_cpus0.iew.predictedTakenIncorrect      1234654                       # Number of branches that were predicted taken incorrectly
system.switch_cpus0.iew.predictedNotTakenIncorrect      1129723                       # Number of branches that were predicted not taken incorrectly
system.switch_cpus0.iew.branchMispredicts      2364377                       # Number of branch mispredicts detected at execute
system.switch_cpus0.iew.iewExecutedInsts    145233382                       # Number of executed instructions
system.switch_cpus0.iew.iewExecLoadInsts     14790590                       # Number of load instructions executed
system.switch_cpus0.iew.iewExecSquashedInsts      2581901                       # Number of squashed instructions skipped in execute
system.switch_cpus0.iew.exec_swp                    0                       # number of swp insts executed
system.switch_cpus0.iew.exec_nop                    0                       # number of nop insts executed
system.switch_cpus0.iew.exec_refs            22979527                       # number of memory reference insts executed
system.switch_cpus0.iew.exec_branches        20588336                       # Number of branches executed
system.switch_cpus0.iew.exec_stores           8188937                       # Number of stores executed
system.switch_cpus0.iew.exec_rate            1.699013                       # Inst execution rate
system.switch_cpus0.iew.wb_sent             143815965                       # cumulative count of insts sent to commit
system.switch_cpus0.iew.wb_count            143670014                       # cumulative count of insts written-back
system.switch_cpus0.iew.wb_producers         93731991                       # num instructions producing a value
system.switch_cpus0.iew.wb_consumers        261829916                       # num instructions consuming a value
system.switch_cpus0.iew.wb_penalized                0                       # number of instrctions required to write to 'other' IQ
system.switch_cpus0.iew.wb_rate              1.680724                       # insts written-back per cycle
system.switch_cpus0.iew.wb_fanout            0.357988                       # average fanout of values written-back
system.switch_cpus0.iew.wb_penalized_rate            0                       # fraction of instructions written-back that wrote to 'other' IQ
system.switch_cpus0.commit.commitCommittedInsts    100000000                       # The number of committed instructions
system.switch_cpus0.commit.commitCommittedOps    122421920                       # The number of committed instructions
system.switch_cpus0.commit.commitSquashedInsts     61629728                       # The number of squashed insts skipped by commit
system.switch_cpus0.commit.commitNonSpecStalls        32044                       # The number of times commit has been forced to stall to communicate backwards
system.switch_cpus0.commit.branchMispredicts      2044092                       # The number of times a branch was mispredicted
system.switch_cpus0.commit.committed_per_cycle::samples     75136521                       # Number of insts commited each cycle
system.switch_cpus0.commit.committed_per_cycle::mean     1.629326                       # Number of insts commited each cycle
system.switch_cpus0.commit.committed_per_cycle::stdev     2.172056                       # Number of insts commited each cycle
system.switch_cpus0.commit.committed_per_cycle::underflows            0      0.00%      0.00% # Number of insts commited each cycle
system.switch_cpus0.commit.committed_per_cycle::0     29815065     39.68%     39.68% # Number of insts commited each cycle
system.switch_cpus0.commit.committed_per_cycle::1     20455962     27.23%     66.91% # Number of insts commited each cycle
system.switch_cpus0.commit.committed_per_cycle::2      8384605     11.16%     78.07% # Number of insts commited each cycle
system.switch_cpus0.commit.committed_per_cycle::3      4291679      5.71%     83.78% # Number of insts commited each cycle
system.switch_cpus0.commit.committed_per_cycle::4      3684784      4.90%     88.68% # Number of insts commited each cycle
system.switch_cpus0.commit.committed_per_cycle::5      1812526      2.41%     91.09% # Number of insts commited each cycle
system.switch_cpus0.commit.committed_per_cycle::6      2002296      2.66%     93.76% # Number of insts commited each cycle
system.switch_cpus0.commit.committed_per_cycle::7      1010663      1.35%     95.10% # Number of insts commited each cycle
system.switch_cpus0.commit.committed_per_cycle::8      3678941      4.90%    100.00% # Number of insts commited each cycle
system.switch_cpus0.commit.committed_per_cycle::overflows            0      0.00%    100.00% # Number of insts commited each cycle
system.switch_cpus0.commit.committed_per_cycle::min_value            0                       # Number of insts commited each cycle
system.switch_cpus0.commit.committed_per_cycle::max_value            8                       # Number of insts commited each cycle
system.switch_cpus0.commit.committed_per_cycle::total     75136521                       # Number of insts commited each cycle
system.switch_cpus0.commit.committedInsts    100000000                       # Number of instructions committed
system.switch_cpus0.commit.committedOps     122421920                       # Number of ops (including micro ops) committed
system.switch_cpus0.commit.swp_count                0                       # Number of s/w prefetches committed
system.switch_cpus0.commit.refs              19953799                       # Number of memory references committed
system.switch_cpus0.commit.loads             12212129                       # Number of loads committed
system.switch_cpus0.commit.membars              16022                       # Number of memory barriers committed
system.switch_cpus0.commit.branches          17573934                       # Number of branches committed
system.switch_cpus0.commit.fp_insts                 0                       # Number of committed floating point instructions.
system.switch_cpus0.commit.int_insts        110146126                       # Number of committed integer instructions.
system.switch_cpus0.commit.function_calls      2413416                       # Number of function calls committed.
system.switch_cpus0.commit.bw_lim_events      3678941                       # number cycles where commit BW limit reached
system.switch_cpus0.commit.bw_limited               0                       # number of insts not committed due to BW limits
system.switch_cpus0.rob.rob_reads           255509228                       # The number of ROB reads
system.switch_cpus0.rob.rob_writes          376875530                       # The number of ROB writes
system.switch_cpus0.timesIdled                  38237                       # Number of times that the entire CPU went into an idle state and unscheduled itself
system.switch_cpus0.idleCycles                1580597                       # Total number of cycles that the CPU has spent unscheduled due to idling
system.switch_cpus0.committedInsts          100000000                       # Number of Instructions Simulated
system.switch_cpus0.committedOps            122421920                       # Number of Ops (including micro ops) Simulated
system.switch_cpus0.committedInsts_total    100000000                       # Number of Instructions Simulated
system.switch_cpus0.cpi                      0.854810                       # CPI: Cycles Per Instruction
system.switch_cpus0.cpi_total                0.854810                       # CPI: Total CPI of All Threads
system.switch_cpus0.ipc                      1.169851                       # IPC: Instructions Per Cycle
system.switch_cpus0.ipc_total                1.169851                       # IPC: Total IPC of All Threads
system.switch_cpus0.int_regfile_reads       655719397                       # number of integer regfile reads
system.switch_cpus0.int_regfile_writes      197098548                       # number of integer regfile writes
system.switch_cpus0.misc_regfile_reads      189501316                       # number of misc regfile reads
system.switch_cpus0.misc_regfile_writes         32044                       # number of misc regfile writes
system.switch_cpus1.dtb.inst_hits                   0                       # ITB inst hits
system.switch_cpus1.dtb.inst_misses                 0                       # ITB inst misses
system.switch_cpus1.dtb.read_hits                   0                       # DTB read hits
system.switch_cpus1.dtb.read_misses                 0                       # DTB read misses
system.switch_cpus1.dtb.write_hits                  0                       # DTB write hits
system.switch_cpus1.dtb.write_misses                0                       # DTB write misses
system.switch_cpus1.dtb.flush_tlb                   0                       # Number of times complete TLB was flushed
system.switch_cpus1.dtb.flush_tlb_mva               0                       # Number of times TLB was flushed by MVA
system.switch_cpus1.dtb.flush_tlb_mva_asid            0                       # Number of times TLB was flushed by MVA & ASID
system.switch_cpus1.dtb.flush_tlb_asid              0                       # Number of times TLB was flushed by ASID
system.switch_cpus1.dtb.flush_entries               0                       # Number of entries that have been flushed from TLB
system.switch_cpus1.dtb.align_faults                0                       # Number of TLB faults due to alignment restrictions
system.switch_cpus1.dtb.prefetch_faults             0                       # Number of TLB faults due to prefetch
system.switch_cpus1.dtb.domain_faults               0                       # Number of TLB faults due to domain restrictions
system.switch_cpus1.dtb.perms_faults                0                       # Number of TLB faults due to permissions restrictions
system.switch_cpus1.dtb.read_accesses               0                       # DTB read accesses
system.switch_cpus1.dtb.write_accesses              0                       # DTB write accesses
system.switch_cpus1.dtb.inst_accesses               0                       # ITB inst accesses
system.switch_cpus1.dtb.hits                        0                       # DTB hits
system.switch_cpus1.dtb.misses                      0                       # DTB misses
system.switch_cpus1.dtb.accesses                    0                       # DTB accesses
system.switch_cpus1.itb.inst_hits                   0                       # ITB inst hits
system.switch_cpus1.itb.inst_misses                 0                       # ITB inst misses
system.switch_cpus1.itb.read_hits                   0                       # DTB read hits
system.switch_cpus1.itb.read_misses                 0                       # DTB read misses
system.switch_cpus1.itb.write_hits                  0                       # DTB write hits
system.switch_cpus1.itb.write_misses                0                       # DTB write misses
system.switch_cpus1.itb.flush_tlb                   0                       # Number of times complete TLB was flushed
system.switch_cpus1.itb.flush_tlb_mva               0                       # Number of times TLB was flushed by MVA
system.switch_cpus1.itb.flush_tlb_mva_asid            0                       # Number of times TLB was flushed by MVA & ASID
system.switch_cpus1.itb.flush_tlb_asid              0                       # Number of times TLB was flushed by ASID
system.switch_cpus1.itb.flush_entries               0                       # Number of entries that have been flushed from TLB
system.switch_cpus1.itb.align_faults                0                       # Number of TLB faults due to alignment restrictions
system.switch_cpus1.itb.prefetch_faults             0                       # Number of TLB faults due to prefetch
system.switch_cpus1.itb.domain_faults               0                       # Number of TLB faults due to domain restrictions
system.switch_cpus1.itb.perms_faults                0                       # Number of TLB faults due to permissions restrictions
system.switch_cpus1.itb.read_accesses               0                       # DTB read accesses
system.switch_cpus1.itb.write_accesses              0                       # DTB write accesses
system.switch_cpus1.itb.inst_accesses               0                       # ITB inst accesses
system.switch_cpus1.itb.hits                        0                       # DTB hits
system.switch_cpus1.itb.misses                      0                       # DTB misses
system.switch_cpus1.itb.accesses                    0                       # DTB accesses
system.cpu1.workload.num_syscalls                   0                       # Number of system calls
system.switch_cpus1.numCycles                85481008                       # number of cpu cycles simulated
system.switch_cpus1.numWorkItemsStarted             0                       # number of work items this cpu started
system.switch_cpus1.numWorkItemsCompleted            0                       # number of work items this cpu completed
system.switch_cpus1.BPredUnit.lookups        30238086                       # Number of BP lookups
system.switch_cpus1.BPredUnit.condPredicted     24573567                       # Number of conditional branches predicted
system.switch_cpus1.BPredUnit.condIncorrect      2060553                       # Number of conditional branches incorrect
system.switch_cpus1.BPredUnit.BTBLookups     12765555                       # Number of BTB lookups
system.switch_cpus1.BPredUnit.BTBHits        11817641                       # Number of BTB hits
system.switch_cpus1.BPredUnit.BTBCorrect            0                       # Number of correct BTB predictions (this stat may not work properly.
system.switch_cpus1.BPredUnit.usedRAS         3190958                       # Number of times the RAS was used to get a target.
system.switch_cpus1.BPredUnit.RASInCorrect        87432                       # Number of incorrect RAS predictions.
system.switch_cpus1.fetch.icacheStallCycles     30351548                       # Number of cycles fetch is stalled on an Icache miss
system.switch_cpus1.fetch.Insts             167715950                       # Number of instructions fetch has processed
system.switch_cpus1.fetch.Branches           30238086                       # Number of branches that fetch encountered
system.switch_cpus1.fetch.predictedBranches     15008599                       # Number of branches that fetch has predicted taken
system.switch_cpus1.fetch.Cycles             36890406                       # Number of cycles fetch has run and was not squashing or blocked
system.switch_cpus1.fetch.SquashCycles       11073800                       # Number of cycles fetch has spent squashing
system.switch_cpus1.fetch.BlockedCycles       6875825                       # Number of cycles fetch has spent blocked
system.switch_cpus1.fetch.PendingTrapStallCycles           22                       # Number of stall cycles due to pending traps
system.switch_cpus1.fetch.CacheLines         14863857                       # Number of cache lines fetched
system.switch_cpus1.fetch.IcacheSquashes       884598                       # Number of outstanding Icache misses that were squashed
system.switch_cpus1.fetch.rateDist::samples     83084875                       # Number of instructions fetched each cycle (Total)
system.switch_cpus1.fetch.rateDist::mean     2.493797                       # Number of instructions fetched each cycle (Total)
system.switch_cpus1.fetch.rateDist::stdev     3.299746                       # Number of instructions fetched each cycle (Total)
system.switch_cpus1.fetch.rateDist::underflows            0      0.00%      0.00% # Number of instructions fetched each cycle (Total)
system.switch_cpus1.fetch.rateDist::0        46194469     55.60%     55.60% # Number of instructions fetched each cycle (Total)
system.switch_cpus1.fetch.rateDist::1         3234884      3.89%     59.49% # Number of instructions fetched each cycle (Total)
system.switch_cpus1.fetch.rateDist::2         2622683      3.16%     62.65% # Number of instructions fetched each cycle (Total)
system.switch_cpus1.fetch.rateDist::3         6368589      7.67%     70.31% # Number of instructions fetched each cycle (Total)
system.switch_cpus1.fetch.rateDist::4         1736750      2.09%     72.40% # Number of instructions fetched each cycle (Total)
system.switch_cpus1.fetch.rateDist::5         2219324      2.67%     75.08% # Number of instructions fetched each cycle (Total)
system.switch_cpus1.fetch.rateDist::6         1598844      1.92%     77.00% # Number of instructions fetched each cycle (Total)
system.switch_cpus1.fetch.rateDist::7          900504      1.08%     78.08% # Number of instructions fetched each cycle (Total)
system.switch_cpus1.fetch.rateDist::8        18208828     21.92%    100.00% # Number of instructions fetched each cycle (Total)
system.switch_cpus1.fetch.rateDist::overflows            0      0.00%    100.00% # Number of instructions fetched each cycle (Total)
system.switch_cpus1.fetch.rateDist::min_value            0                       # Number of instructions fetched each cycle (Total)
system.switch_cpus1.fetch.rateDist::max_value            8                       # Number of instructions fetched each cycle (Total)
system.switch_cpus1.fetch.rateDist::total     83084875                       # Number of instructions fetched each cycle (Total)
system.switch_cpus1.fetch.branchRate         0.353740                       # Number of branch fetches per cycle
system.switch_cpus1.fetch.rate               1.962026                       # Number of inst fetches per cycle
system.switch_cpus1.decode.IdleCycles        31749612                       # Number of cycles decode is idle
system.switch_cpus1.decode.BlockedCycles      6690711                       # Number of cycles decode is blocked
system.switch_cpus1.decode.RunCycles         35478811                       # Number of cycles decode is running
system.switch_cpus1.decode.UnblockCycles       239425                       # Number of cycles decode is unblocking
system.switch_cpus1.decode.SquashCycles       8926307                       # Number of cycles decode is squashing
system.switch_cpus1.decode.BranchResolved      5167241                       # Number of times decode resolved a branch
system.switch_cpus1.decode.BranchMispred        41068                       # Number of times decode detected a branch misprediction
system.switch_cpus1.decode.DecodedInsts     200531556                       # Number of instructions handled by decode
system.switch_cpus1.decode.SquashedInsts        77572                       # Number of squashed instructions handled by decode
system.switch_cpus1.rename.SquashCycles       8926307                       # Number of cycles rename is squashing
system.switch_cpus1.rename.IdleCycles        34073240                       # Number of cycles rename is idle
system.switch_cpus1.rename.BlockCycles        1368977                       # Number of cycles rename is blocking
system.switch_cpus1.rename.serializeStallCycles      1888000                       # count of cycles rename stalled for serializing inst
system.switch_cpus1.rename.RunCycles         33339722                       # Number of cycles rename is running
system.switch_cpus1.rename.UnblockCycles      3488621                       # Number of cycles rename is unblocking
system.switch_cpus1.rename.RenamedInsts     193467729                       # Number of instructions processed by rename
system.switch_cpus1.rename.ROBFullEvents        28499                       # Number of times rename has blocked due to ROB full
system.switch_cpus1.rename.IQFullEvents       1447744                       # Number of times rename has blocked due to IQ full
system.switch_cpus1.rename.LSQFullEvents      1084008                       # Number of times rename has blocked due to LSQ full
system.switch_cpus1.rename.FullRegisterEvents         1351                       # Number of times there has been no free registers
system.switch_cpus1.rename.RenamedOperands    270816440                       # Number of destination operands rename has renamed
system.switch_cpus1.rename.RenameLookups    903228953                       # Number of register rename lookups that rename has made
system.switch_cpus1.rename.int_rename_lookups    903228953                       # Number of integer rename lookups
system.switch_cpus1.rename.CommittedMaps    166121249                       # Number of HB maps that are committed
system.switch_cpus1.rename.UndoneMaps       104695151                       # Number of HB maps that are undone due to squashing
system.switch_cpus1.rename.serializingInsts        39836                       # count of serializing insts renamed
system.switch_cpus1.rename.tempSerializingInsts        22567                       # count of temporary serializing insts renamed
system.switch_cpus1.rename.skidInsts          9566046                       # count of insts added to the skid buffer
system.switch_cpus1.memDep0.insertedLoads     18027955                       # Number of loads inserted to the mem dependence unit.
system.switch_cpus1.memDep0.insertedStores      9193122                       # Number of stores inserted to the mem dependence unit.
system.switch_cpus1.memDep0.conflictingLoads       145009                       # Number of conflicting loads.
system.switch_cpus1.memDep0.conflictingStores      2971389                       # Number of conflicting stores.
system.switch_cpus1.iq.iqInstsAdded         182952466                       # Number of instructions added to the IQ (excludes non-spec)
system.switch_cpus1.iq.iqNonSpecInstsAdded        38441                       # Number of non-speculative instructions added to the IQ
system.switch_cpus1.iq.iqInstsIssued        145354844                       # Number of instructions issued
system.switch_cpus1.iq.iqSquashedInstsIssued       284242                       # Number of squashed instructions issued
system.switch_cpus1.iq.iqSquashedInstsExamined     63147935                       # Number of squashed instructions iterated over during squash; mainly for profiling
system.switch_cpus1.iq.iqSquashedOperandsExamined    192947316                       # Number of squashed operands that are examined and possibly removed from graph
system.switch_cpus1.iq.iqSquashedNonSpecRemoved         6257                       # Number of squashed non-spec instructions that were removed
system.switch_cpus1.iq.issued_per_cycle::samples     83084875                       # Number of insts issued each cycle
system.switch_cpus1.iq.issued_per_cycle::mean     1.749474                       # Number of insts issued each cycle
system.switch_cpus1.iq.issued_per_cycle::stdev     1.885610                       # Number of insts issued each cycle
system.switch_cpus1.iq.issued_per_cycle::underflows            0      0.00%      0.00% # Number of insts issued each cycle
system.switch_cpus1.iq.issued_per_cycle::0     29213076     35.16%     35.16% # Number of insts issued each cycle
system.switch_cpus1.iq.issued_per_cycle::1     17771654     21.39%     56.55% # Number of insts issued each cycle
system.switch_cpus1.iq.issued_per_cycle::2     11630828     14.00%     70.55% # Number of insts issued each cycle
system.switch_cpus1.iq.issued_per_cycle::3      8613908     10.37%     80.92% # Number of insts issued each cycle
system.switch_cpus1.iq.issued_per_cycle::4      7413601      8.92%     89.84% # Number of insts issued each cycle
system.switch_cpus1.iq.issued_per_cycle::5      3845330      4.63%     94.47% # Number of insts issued each cycle
system.switch_cpus1.iq.issued_per_cycle::6      3277673      3.94%     98.41% # Number of insts issued each cycle
system.switch_cpus1.iq.issued_per_cycle::7       617722      0.74%     99.16% # Number of insts issued each cycle
system.switch_cpus1.iq.issued_per_cycle::8       701083      0.84%    100.00% # Number of insts issued each cycle
system.switch_cpus1.iq.issued_per_cycle::overflows            0      0.00%    100.00% # Number of insts issued each cycle
system.switch_cpus1.iq.issued_per_cycle::min_value            0                       # Number of insts issued each cycle
system.switch_cpus1.iq.issued_per_cycle::max_value            8                       # Number of insts issued each cycle
system.switch_cpus1.iq.issued_per_cycle::total     83084875                       # Number of insts issued each cycle
system.switch_cpus1.iq.fu_full::No_OpClass            0      0.00%      0.00% # attempts to use FU when none available
system.switch_cpus1.iq.fu_full::IntAlu         851281     71.19%     71.19% # attempts to use FU when none available
system.switch_cpus1.iq.fu_full::IntMult             8      0.00%     71.19% # attempts to use FU when none available
system.switch_cpus1.iq.fu_full::IntDiv              0      0.00%     71.19% # attempts to use FU when none available
system.switch_cpus1.iq.fu_full::FloatAdd            0      0.00%     71.19% # attempts to use FU when none available
system.switch_cpus1.iq.fu_full::FloatCmp            0      0.00%     71.19% # attempts to use FU when none available
system.switch_cpus1.iq.fu_full::FloatCvt            0      0.00%     71.19% # attempts to use FU when none available
system.switch_cpus1.iq.fu_full::FloatMult            0      0.00%     71.19% # attempts to use FU when none available
system.switch_cpus1.iq.fu_full::FloatDiv            0      0.00%     71.19% # attempts to use FU when none available
system.switch_cpus1.iq.fu_full::FloatSqrt            0      0.00%     71.19% # attempts to use FU when none available
system.switch_cpus1.iq.fu_full::SimdAdd             0      0.00%     71.19% # attempts to use FU when none available
system.switch_cpus1.iq.fu_full::SimdAddAcc            0      0.00%     71.19% # attempts to use FU when none available
system.switch_cpus1.iq.fu_full::SimdAlu             0      0.00%     71.19% # attempts to use FU when none available
system.switch_cpus1.iq.fu_full::SimdCmp             0      0.00%     71.19% # attempts to use FU when none available
system.switch_cpus1.iq.fu_full::SimdCvt             0      0.00%     71.19% # attempts to use FU when none available
system.switch_cpus1.iq.fu_full::SimdMisc            0      0.00%     71.19% # attempts to use FU when none available
system.switch_cpus1.iq.fu_full::SimdMult            0      0.00%     71.19% # attempts to use FU when none available
system.switch_cpus1.iq.fu_full::SimdMultAcc            0      0.00%     71.19% # attempts to use FU when none available
system.switch_cpus1.iq.fu_full::SimdShift            0      0.00%     71.19% # attempts to use FU when none available
system.switch_cpus1.iq.fu_full::SimdShiftAcc            0      0.00%     71.19% # attempts to use FU when none available
system.switch_cpus1.iq.fu_full::SimdSqrt            0      0.00%     71.19% # attempts to use FU when none available
system.switch_cpus1.iq.fu_full::SimdFloatAdd            0      0.00%     71.19% # attempts to use FU when none available
system.switch_cpus1.iq.fu_full::SimdFloatAlu            0      0.00%     71.19% # attempts to use FU when none available
system.switch_cpus1.iq.fu_full::SimdFloatCmp            0      0.00%     71.19% # attempts to use FU when none available
system.switch_cpus1.iq.fu_full::SimdFloatCvt            0      0.00%     71.19% # attempts to use FU when none available
system.switch_cpus1.iq.fu_full::SimdFloatDiv            0      0.00%     71.19% # attempts to use FU when none available
system.switch_cpus1.iq.fu_full::SimdFloatMisc            0      0.00%     71.19% # attempts to use FU when none available
system.switch_cpus1.iq.fu_full::SimdFloatMult            0      0.00%     71.19% # attempts to use FU when none available
system.switch_cpus1.iq.fu_full::SimdFloatMultAcc            0      0.00%     71.19% # attempts to use FU when none available
system.switch_cpus1.iq.fu_full::SimdFloatSqrt            0      0.00%     71.19% # attempts to use FU when none available
system.switch_cpus1.iq.fu_full::MemRead        172415     14.42%     85.61% # attempts to use FU when none available
system.switch_cpus1.iq.fu_full::MemWrite       172135     14.39%    100.00% # attempts to use FU when none available
system.switch_cpus1.iq.fu_full::IprAccess            0      0.00%    100.00% # attempts to use FU when none available
system.switch_cpus1.iq.fu_full::InstPrefetch            0      0.00%    100.00% # attempts to use FU when none available
system.switch_cpus1.iq.FU_type_0::No_OpClass            0      0.00%      0.00% # Type of FU issued
system.switch_cpus1.iq.FU_type_0::IntAlu    121110902     83.32%     83.32% # Type of FU issued
system.switch_cpus1.iq.FU_type_0::IntMult      2069326      1.42%     84.74% # Type of FU issued
system.switch_cpus1.iq.FU_type_0::IntDiv            0      0.00%     84.74% # Type of FU issued
system.switch_cpus1.iq.FU_type_0::FloatAdd            0      0.00%     84.74% # Type of FU issued
system.switch_cpus1.iq.FU_type_0::FloatCmp            0      0.00%     84.74% # Type of FU issued
system.switch_cpus1.iq.FU_type_0::FloatCvt            0      0.00%     84.74% # Type of FU issued
system.switch_cpus1.iq.FU_type_0::FloatMult            0      0.00%     84.74% # Type of FU issued
system.switch_cpus1.iq.FU_type_0::FloatDiv            0      0.00%     84.74% # Type of FU issued
system.switch_cpus1.iq.FU_type_0::FloatSqrt            0      0.00%     84.74% # Type of FU issued
system.switch_cpus1.iq.FU_type_0::SimdAdd            0      0.00%     84.74% # Type of FU issued
system.switch_cpus1.iq.FU_type_0::SimdAddAcc            0      0.00%     84.74% # Type of FU issued
system.switch_cpus1.iq.FU_type_0::SimdAlu            0      0.00%     84.74% # Type of FU issued
system.switch_cpus1.iq.FU_type_0::SimdCmp            0      0.00%     84.74% # Type of FU issued
system.switch_cpus1.iq.FU_type_0::SimdCvt            0      0.00%     84.74% # Type of FU issued
system.switch_cpus1.iq.FU_type_0::SimdMisc            0      0.00%     84.74% # Type of FU issued
system.switch_cpus1.iq.FU_type_0::SimdMult            0      0.00%     84.74% # Type of FU issued
system.switch_cpus1.iq.FU_type_0::SimdMultAcc            0      0.00%     84.74% # Type of FU issued
system.switch_cpus1.iq.FU_type_0::SimdShift            0      0.00%     84.74% # Type of FU issued
system.switch_cpus1.iq.FU_type_0::SimdShiftAcc            0      0.00%     84.74% # Type of FU issued
system.switch_cpus1.iq.FU_type_0::SimdSqrt            0      0.00%     84.74% # Type of FU issued
system.switch_cpus1.iq.FU_type_0::SimdFloatAdd            0      0.00%     84.74% # Type of FU issued
system.switch_cpus1.iq.FU_type_0::SimdFloatAlu            0      0.00%     84.74% # Type of FU issued
system.switch_cpus1.iq.FU_type_0::SimdFloatCmp            0      0.00%     84.74% # Type of FU issued
system.switch_cpus1.iq.FU_type_0::SimdFloatCvt            0      0.00%     84.74% # Type of FU issued
system.switch_cpus1.iq.FU_type_0::SimdFloatDiv            0      0.00%     84.74% # Type of FU issued
system.switch_cpus1.iq.FU_type_0::SimdFloatMisc        16091      0.01%     84.76% # Type of FU issued
system.switch_cpus1.iq.FU_type_0::SimdFloatMult            0      0.00%     84.76% # Type of FU issued
system.switch_cpus1.iq.FU_type_0::SimdFloatMultAcc            0      0.00%     84.76% # Type of FU issued
system.switch_cpus1.iq.FU_type_0::SimdFloatSqrt            0      0.00%     84.76% # Type of FU issued
system.switch_cpus1.iq.FU_type_0::MemRead     14427503      9.93%     94.68% # Type of FU issued
system.switch_cpus1.iq.FU_type_0::MemWrite      7731022      5.32%    100.00% # Type of FU issued
system.switch_cpus1.iq.FU_type_0::IprAccess            0      0.00%    100.00% # Type of FU issued
system.switch_cpus1.iq.FU_type_0::InstPrefetch            0      0.00%    100.00% # Type of FU issued
system.switch_cpus1.iq.FU_type_0::total     145354844                       # Type of FU issued
system.switch_cpus1.iq.rate                  1.700434                       # Inst issue rate
system.switch_cpus1.iq.fu_busy_cnt            1195839                       # FU busy when requested
system.switch_cpus1.iq.fu_busy_rate          0.008227                       # FU busy rate (busy events/executed inst)
system.switch_cpus1.iq.int_inst_queue_reads    375274642                       # Number of integer instruction queue reads
system.switch_cpus1.iq.int_inst_queue_writes    246139449                       # Number of integer instruction queue writes
system.switch_cpus1.iq.int_inst_queue_wakeup_accesses    141659800                       # Number of integer instruction queue wakeup accesses
system.switch_cpus1.iq.fp_inst_queue_reads            0                       # Number of floating instruction queue reads
system.switch_cpus1.iq.fp_inst_queue_writes            0                       # Number of floating instruction queue writes
system.switch_cpus1.iq.fp_inst_queue_wakeup_accesses            0                       # Number of floating instruction queue wakeup accesses
system.switch_cpus1.iq.int_alu_accesses     146550683                       # Number of integer alu accesses
system.switch_cpus1.iq.fp_alu_accesses              0                       # Number of floating point alu accesses
system.switch_cpus1.iew.lsq.thread0.forwLoads       543907                       # Number of loads that had data forwarded from stores
system.switch_cpus1.iew.lsq.thread0.invAddrLoads            0                       # Number of loads ignored due to an invalid address
system.switch_cpus1.iew.lsq.thread0.squashedLoads      7095032                       # Number of loads squashed
system.switch_cpus1.iew.lsq.thread0.ignoredResponses         2824                       # Number of memory responses ignored because the instruction is squashed
system.switch_cpus1.iew.lsq.thread0.memOrderViolation          608                       # Number of memory ordering violations
system.switch_cpus1.iew.lsq.thread0.squashedStores      2355661                       # Number of stores squashed
system.switch_cpus1.iew.lsq.thread0.invAddrSwpfs            0                       # Number of software prefetches ignored due to an invalid address
system.switch_cpus1.iew.lsq.thread0.blockedLoads            0                       # Number of blocked loads due to partial load-store forwarding
system.switch_cpus1.iew.lsq.thread0.rescheduledLoads            0                       # Number of loads that were rescheduled
system.switch_cpus1.iew.lsq.thread0.cacheBlocked            0                       # Number of times an access to memory failed due to the cache being blocked
system.switch_cpus1.iew.iewIdleCycles               0                       # Number of cycles IEW is idle
system.switch_cpus1.iew.iewSquashCycles       8926307                       # Number of cycles IEW is squashing
system.switch_cpus1.iew.iewBlockCycles         589765                       # Number of cycles IEW is blocking
system.switch_cpus1.iew.iewUnblockCycles        79556                       # Number of cycles IEW is unblocking
system.switch_cpus1.iew.iewDispatchedInsts    182990909                       # Number of instructions dispatched to IQ
system.switch_cpus1.iew.iewDispSquashedInsts       398847                       # Number of squashed instructions skipped by dispatch
system.switch_cpus1.iew.iewDispLoadInsts     18027955                       # Number of dispatched load instructions
system.switch_cpus1.iew.iewDispStoreInsts      9193122                       # Number of dispatched store instructions
system.switch_cpus1.iew.iewDispNonSpecInsts        22349                       # Number of dispatched non-speculative instructions
system.switch_cpus1.iew.iewIQFullEvents         71370                       # Number of times the IQ has become full, causing a stall
system.switch_cpus1.iew.iewLSQFullEvents            0                       # Number of times the LSQ has become full, causing a stall
system.switch_cpus1.iew.memOrderViolationEvents          608                       # Number of memory order violations
system.switch_cpus1.iew.predictedTakenIncorrect      1233319                       # Number of branches that were predicted taken incorrectly
system.switch_cpus1.iew.predictedNotTakenIncorrect      1157891                       # Number of branches that were predicted not taken incorrectly
system.switch_cpus1.iew.branchMispredicts      2391210                       # Number of branch mispredicts detected at execute
system.switch_cpus1.iew.iewExecutedInsts    143050365                       # Number of executed instructions
system.switch_cpus1.iew.iewExecLoadInsts     13540280                       # Number of load instructions executed
system.switch_cpus1.iew.iewExecSquashedInsts      2304477                       # Number of squashed instructions skipped in execute
system.switch_cpus1.iew.exec_swp                    0                       # number of swp insts executed
system.switch_cpus1.iew.exec_nop                    2                       # number of nop insts executed
system.switch_cpus1.iew.exec_refs            21067840                       # number of memory reference insts executed
system.switch_cpus1.iew.exec_branches        20183511                       # Number of branches executed
system.switch_cpus1.iew.exec_stores           7527560                       # Number of stores executed
system.switch_cpus1.iew.exec_rate            1.673475                       # Inst execution rate
system.switch_cpus1.iew.wb_sent             141753650                       # cumulative count of insts sent to commit
system.switch_cpus1.iew.wb_count            141659800                       # cumulative count of insts written-back
system.switch_cpus1.iew.wb_producers         92318615                       # num instructions producing a value
system.switch_cpus1.iew.wb_consumers        260639956                       # num instructions consuming a value
system.switch_cpus1.iew.wb_penalized                0                       # number of instrctions required to write to 'other' IQ
system.switch_cpus1.iew.wb_rate              1.657208                       # insts written-back per cycle
system.switch_cpus1.iew.wb_fanout            0.354200                       # average fanout of values written-back
system.switch_cpus1.iew.wb_penalized_rate            0                       # fraction of instructions written-back that wrote to 'other' IQ
system.switch_cpus1.commit.commitCommittedInsts     97319947                       # The number of committed instructions
system.switch_cpus1.commit.commitCommittedOps    119518198                       # The number of committed instructions
system.switch_cpus1.commit.commitSquashedInsts     63473545                       # The number of squashed insts skipped by commit
system.switch_cpus1.commit.commitNonSpecStalls        32184                       # The number of times commit has been forced to stall to communicate backwards
[...]
system.cpu3.icache.ReadReq_avg_miss_latency::total 247498.352941                       # average ReadReq miss latency
system.cpu3.icache.demand_avg_miss_latency::switch_cpus3.inst 247498.352941                       # average overall miss latency
system.cpu3.icache.demand_avg_miss_latency::total 247498.352941                       # average overall miss latency
system.cpu3.icache.overall_avg_miss_latency::switch_cpus3.inst 247498.352941                       # average overall miss latency
system.cpu3.icache.overall_avg_miss_latency::total 247498.352941                       # average overall miss latency
system.cpu3.icache.blocked_cycles::no_mshrs            0                       # number of cycles access was blocked
system.cpu3.icache.blocked_cycles::no_targets            0                       # number of cycles access was blocked
system.cpu3.icache.blocked::no_mshrs                0                       # number of cycles access was blocked
system.cpu3.icache.blocked::no_targets              0                       # number of cycles access was blocked
system.cpu3.icache.avg_blocked_cycles::no_mshrs          nan                       # average number of cycles each access was blocked
system.cpu3.icache.avg_blocked_cycles::no_targets          nan                       # average number of cycles each access was blocked
system.cpu3.icache.fast_writes                      0                       # number of fast writes performed
system.cpu3.icache.cache_copies                     0                       # number of cache copies performed
system.cpu3.icache.ReadReq_mshr_hits::switch_cpus3.inst            4                       # number of ReadReq MSHR hits
system.cpu3.icache.ReadReq_mshr_hits::total            4                       # number of ReadReq MSHR hits
system.cpu3.icache.demand_mshr_hits::switch_cpus3.inst            4                       # number of demand (read+write) MSHR hits
system.cpu3.icache.demand_mshr_hits::total            4                       # number of demand (read+write) MSHR hits
system.cpu3.icache.overall_mshr_hits::switch_cpus3.inst            4                       # number of overall MSHR hits
system.cpu3.icache.overall_mshr_hits::total            4                       # number of overall MSHR hits
system.cpu3.icache.ReadReq_mshr_misses::switch_cpus3.inst           13                       # number of ReadReq MSHR misses
system.cpu3.icache.ReadReq_mshr_misses::total           13                       # number of ReadReq MSHR misses
system.cpu3.icache.demand_mshr_misses::switch_cpus3.inst           13                       # number of demand (read+write) MSHR misses
system.cpu3.icache.demand_mshr_misses::total           13                       # number of demand (read+write) MSHR misses
system.cpu3.icache.overall_mshr_misses::switch_cpus3.inst           13                       # number of overall MSHR misses
system.cpu3.icache.overall_mshr_misses::total           13                       # number of overall MSHR misses
system.cpu3.icache.ReadReq_mshr_miss_latency::switch_cpus3.inst      3113949                       # number of ReadReq MSHR miss cycles
system.cpu3.icache.ReadReq_mshr_miss_latency::total      3113949                       # number of ReadReq MSHR miss cycles
system.cpu3.icache.demand_mshr_miss_latency::switch_cpus3.inst      3113949                       # number of demand (read+write) MSHR miss cycles
system.cpu3.icache.demand_mshr_miss_latency::total      3113949                       # number of demand (read+write) MSHR miss cycles
system.cpu3.icache.overall_mshr_miss_latency::switch_cpus3.inst      3113949                       # number of overall MSHR miss cycles
system.cpu3.icache.overall_mshr_miss_latency::total      3113949                       # number of overall MSHR miss cycles
system.cpu3.icache.ReadReq_mshr_miss_rate::switch_cpus3.inst     0.000001                       # mshr miss rate for ReadReq accesses
system.cpu3.icache.ReadReq_mshr_miss_rate::total     0.000001                       # mshr miss rate for ReadReq accesses
system.cpu3.icache.demand_mshr_miss_rate::switch_cpus3.inst     0.000001                       # mshr miss rate for demand accesses
system.cpu3.icache.demand_mshr_miss_rate::total     0.000001                       # mshr miss rate for demand accesses
system.cpu3.icache.overall_mshr_miss_rate::switch_cpus3.inst     0.000001                       # mshr miss rate for overall accesses
system.cpu3.icache.overall_mshr_miss_rate::total     0.000001                       # mshr miss rate for overall accesses
system.cpu3.icache.ReadReq_avg_mshr_miss_latency::switch_cpus3.inst 239534.538462                       # average ReadReq mshr miss latency
system.cpu3.icache.ReadReq_avg_mshr_miss_latency::total 239534.538462                       # average ReadReq mshr miss latency
system.cpu3.icache.demand_avg_mshr_miss_latency::switch_cpus3.inst 239534.538462                       # average overall mshr miss latency
system.cpu3.icache.demand_avg_mshr_miss_latency::total 239534.538462                       # average overall mshr miss latency
system.cpu3.icache.overall_avg_mshr_miss_latency::switch_cpus3.inst 239534.538462                       # average overall mshr miss latency
system.cpu3.icache.overall_avg_mshr_miss_latency::total 239534.538462                       # average overall mshr miss latency
system.cpu3.icache.no_allocate_misses               0                       # Number of misses that were no-allocate
system.cpu3.dcache.replacements                 52482                       # number of replacements
system.cpu3.dcache.tagsinuse                      256                       # Cycle average of tags in use
system.cpu3.dcache.total_refs               174227194                       # Total number of references to valid blocks.
system.cpu3.dcache.sampled_refs                 52738                       # Sample count of references to valid blocks.
system.cpu3.dcache.avg_refs               3303.636733                       # Average number of references to valid blocks.
system.cpu3.dcache.warmup_cycle                     0                       # Cycle when the warmup percentage was hit.
system.cpu3.dcache.occ_blocks::switch_cpus3.data   233.222039                       # Average occupied blocks per requestor
system.cpu3.dcache.occ_blocks::cpu3.data    22.777961                       # Average occupied blocks per requestor
system.cpu3.dcache.occ_percent::switch_cpus3.data     0.911024                       # Average percentage of cache occupancy
system.cpu3.dcache.occ_percent::cpu3.data     0.088976                       # Average percentage of cache occupancy
system.cpu3.dcache.occ_percent::total               1                       # Average percentage of cache occupancy
system.cpu3.dcache.ReadReq_hits::switch_cpus3.data     10495429                       # number of ReadReq hits
system.cpu3.dcache.ReadReq_hits::total       10495429                       # number of ReadReq hits
system.cpu3.dcache.WriteReq_hits::switch_cpus3.data      7228084                       # number of WriteReq hits
system.cpu3.dcache.WriteReq_hits::total       7228084                       # number of WriteReq hits
system.cpu3.dcache.LoadLockedReq_hits::switch_cpus3.data        17748                       # number of LoadLockedReq hits
system.cpu3.dcache.LoadLockedReq_hits::total        17748                       # number of LoadLockedReq hits
system.cpu3.dcache.StoreCondReq_hits::switch_cpus3.data        16772                       # number of StoreCondReq hits
system.cpu3.dcache.StoreCondReq_hits::total        16772                       # number of StoreCondReq hits
system.cpu3.dcache.demand_hits::switch_cpus3.data     17723513                       # number of demand (read+write) hits
system.cpu3.dcache.demand_hits::total        17723513                       # number of demand (read+write) hits
system.cpu3.dcache.overall_hits::switch_cpus3.data     17723513                       # number of overall hits
system.cpu3.dcache.overall_hits::total       17723513                       # number of overall hits
system.cpu3.dcache.ReadReq_misses::switch_cpus3.data       132847                       # number of ReadReq misses
system.cpu3.dcache.ReadReq_misses::total       132847                       # number of ReadReq misses
system.cpu3.dcache.WriteReq_misses::switch_cpus3.data         4660                       # number of WriteReq misses
system.cpu3.dcache.WriteReq_misses::total         4660                       # number of WriteReq misses
system.cpu3.dcache.demand_misses::switch_cpus3.data       137507                       # number of demand (read+write) misses
system.cpu3.dcache.demand_misses::total        137507                       # number of demand (read+write) misses
system.cpu3.dcache.overall_misses::switch_cpus3.data       137507                       # number of overall misses
system.cpu3.dcache.overall_misses::total       137507                       # number of overall misses
system.cpu3.dcache.ReadReq_miss_latency::switch_cpus3.data   4149555588                       # number of ReadReq miss cycles
system.cpu3.dcache.ReadReq_miss_latency::total   4149555588                       # number of ReadReq miss cycles
system.cpu3.dcache.WriteReq_miss_latency::switch_cpus3.data    732933529                       # number of WriteReq miss cycles
system.cpu3.dcache.WriteReq_miss_latency::total    732933529                       # number of WriteReq miss cycles
system.cpu3.dcache.demand_miss_latency::switch_cpus3.data   4882489117                       # number of demand (read+write) miss cycles
system.cpu3.dcache.demand_miss_latency::total   4882489117                       # number of demand (read+write) miss cycles
system.cpu3.dcache.overall_miss_latency::switch_cpus3.data   4882489117                       # number of overall miss cycles
system.cpu3.dcache.overall_miss_latency::total   4882489117                       # number of overall miss cycles
system.cpu3.dcache.ReadReq_accesses::switch_cpus3.data     10628276                       # number of ReadReq accesses(hits+misses)
system.cpu3.dcache.ReadReq_accesses::total     10628276                       # number of ReadReq accesses(hits+misses)
system.cpu3.dcache.WriteReq_accesses::switch_cpus3.data      7232744                       # number of WriteReq accesses(hits+misses)
system.cpu3.dcache.WriteReq_accesses::total      7232744                       # number of WriteReq accesses(hits+misses)
system.cpu3.dcache.LoadLockedReq_accesses::switch_cpus3.data        17748                       # number of LoadLockedReq accesses(hits+misses)
system.cpu3.dcache.LoadLockedReq_accesses::total        17748                       # number of LoadLockedReq accesses(hits+misses)
system.cpu3.dcache.StoreCondReq_accesses::switch_cpus3.data        16772                       # number of StoreCondReq accesses(hits+misses)
system.cpu3.dcache.StoreCondReq_accesses::total        16772                       # number of StoreCondReq accesses(hits+misses)
system.cpu3.dcache.demand_accesses::switch_cpus3.data     17861020                       # number of demand (read+write) accesses
system.cpu3.dcache.demand_accesses::total     17861020                       # number of demand (read+write) accesses
system.cpu3.dcache.overall_accesses::switch_cpus3.data     17861020                       # number of overall (read+write) accesses
system.cpu3.dcache.overall_accesses::total     17861020                       # number of overall (read+write) accesses
system.cpu3.dcache.ReadReq_miss_rate::switch_cpus3.data     0.012499                       # miss rate for ReadReq accesses
system.cpu3.dcache.ReadReq_miss_rate::total     0.012499                       # miss rate for ReadReq accesses
system.cpu3.dcache.WriteReq_miss_rate::switch_cpus3.data     0.000644                       # miss rate for WriteReq accesses
system.cpu3.dcache.WriteReq_miss_rate::total     0.000644                       # miss rate for WriteReq accesses
system.cpu3.dcache.demand_miss_rate::switch_cpus3.data     0.007699                       # miss rate for demand accesses
system.cpu3.dcache.demand_miss_rate::total     0.007699                       # miss rate for demand accesses
system.cpu3.dcache.overall_miss_rate::switch_cpus3.data     0.007699                       # miss rate for overall accesses
system.cpu3.dcache.overall_miss_rate::total     0.007699                       # miss rate for overall accesses
system.cpu3.dcache.ReadReq_avg_miss_latency::switch_cpus3.data 31235.598756                       # average ReadReq miss latency
system.cpu3.dcache.ReadReq_avg_miss_latency::total 31235.598756                       # average ReadReq miss latency
system.cpu3.dcache.WriteReq_avg_miss_latency::switch_cpus3.data 157281.873176                       # average WriteReq miss latency
system.cpu3.dcache.WriteReq_avg_miss_latency::total 157281.873176                       # average WriteReq miss latency
system.cpu3.dcache.demand_avg_miss_latency::switch_cpus3.data 35507.204121                       # average overall miss latency
system.cpu3.dcache.demand_avg_miss_latency::total 35507.204121                       # average overall miss latency
system.cpu3.dcache.overall_avg_miss_latency::switch_cpus3.data 35507.204121                       # average overall miss latency
system.cpu3.dcache.overall_avg_miss_latency::total 35507.204121                       # average overall miss latency
system.cpu3.dcache.blocked_cycles::no_mshrs            0                       # number of cycles access was blocked
system.cpu3.dcache.blocked_cycles::no_targets      3154797                       # number of cycles access was blocked
system.cpu3.dcache.blocked::no_mshrs                0                       # number of cycles access was blocked
system.cpu3.dcache.blocked::no_targets             23                       # number of cycles access was blocked
system.cpu3.dcache.avg_blocked_cycles::no_mshrs          nan                       # average number of cycles each access was blocked
system.cpu3.dcache.avg_blocked_cycles::no_targets 137165.086957                       # average number of cycles each access was blocked
system.cpu3.dcache.fast_writes                      0                       # number of fast writes performed
system.cpu3.dcache.cache_copies                     0                       # number of cache copies performed
system.cpu3.dcache.writebacks::writebacks        28032                       # number of writebacks
system.cpu3.dcache.writebacks::total            28032                       # number of writebacks
system.cpu3.dcache.ReadReq_mshr_hits::switch_cpus3.data        80369                       # number of ReadReq MSHR hits
system.cpu3.dcache.ReadReq_mshr_hits::total        80369                       # number of ReadReq MSHR hits
system.cpu3.dcache.WriteReq_mshr_hits::switch_cpus3.data         4656                       # number of WriteReq MSHR hits
system.cpu3.dcache.WriteReq_mshr_hits::total         4656                       # number of WriteReq MSHR hits
system.cpu3.dcache.demand_mshr_hits::switch_cpus3.data        85025                       # number of demand (read+write) MSHR hits
system.cpu3.dcache.demand_mshr_hits::total        85025                       # number of demand (read+write) MSHR hits
system.cpu3.dcache.overall_mshr_hits::switch_cpus3.data        85025                       # number of overall MSHR hits
system.cpu3.dcache.overall_mshr_hits::total        85025                       # number of overall MSHR hits
system.cpu3.dcache.ReadReq_mshr_misses::switch_cpus3.data        52478                       # number of ReadReq MSHR misses
system.cpu3.dcache.ReadReq_mshr_misses::total        52478                       # number of ReadReq MSHR misses
system.cpu3.dcache.WriteReq_mshr_misses::switch_cpus3.data            4                       # number of WriteReq MSHR misses
system.cpu3.dcache.WriteReq_mshr_misses::total            4                       # number of WriteReq MSHR misses
system.cpu3.dcache.demand_mshr_misses::switch_cpus3.data        52482                       # number of demand (read+write) MSHR misses
system.cpu3.dcache.demand_mshr_misses::total        52482                       # number of demand (read+write) MSHR misses
system.cpu3.dcache.overall_mshr_misses::switch_cpus3.data        52482                       # number of overall MSHR misses
system.cpu3.dcache.overall_mshr_misses::total        52482                       # number of overall MSHR misses
system.cpu3.dcache.ReadReq_mshr_miss_latency::switch_cpus3.data    903511476                       # number of ReadReq MSHR miss cycles
system.cpu3.dcache.ReadReq_mshr_miss_latency::total    903511476                       # number of ReadReq MSHR miss cycles
system.cpu3.dcache.WriteReq_mshr_miss_latency::switch_cpus3.data       594180                       # number of WriteReq MSHR miss cycles
system.cpu3.dcache.WriteReq_mshr_miss_latency::total       594180                       # number of WriteReq MSHR miss cycles
system.cpu3.dcache.demand_mshr_miss_latency::switch_cpus3.data    904105656                       # number of demand (read+write) MSHR miss cycles
system.cpu3.dcache.demand_mshr_miss_latency::total    904105656                       # number of demand (read+write) MSHR miss cycles
system.cpu3.dcache.overall_mshr_miss_latency::switch_cpus3.data    904105656                       # number of overall MSHR miss cycles
system.cpu3.dcache.overall_mshr_miss_latency::total    904105656                       # number of overall MSHR miss cycles
system.cpu3.dcache.ReadReq_mshr_miss_rate::switch_cpus3.data     0.004938                       # mshr miss rate for ReadReq accesses
system.cpu3.dcache.ReadReq_mshr_miss_rate::total     0.004938                       # mshr miss rate for ReadReq accesses
system.cpu3.dcache.WriteReq_mshr_miss_rate::switch_cpus3.data     0.000001                       # mshr miss rate for WriteReq accesses
system.cpu3.dcache.WriteReq_mshr_miss_rate::total     0.000001                       # mshr miss rate for WriteReq accesses
system.cpu3.dcache.demand_mshr_miss_rate::switch_cpus3.data     0.002938                       # mshr miss rate for demand accesses
system.cpu3.dcache.demand_mshr_miss_rate::total     0.002938                       # mshr miss rate for demand accesses
system.cpu3.dcache.overall_mshr_miss_rate::switch_cpus3.data     0.002938                       # mshr miss rate for overall accesses
system.cpu3.dcache.overall_mshr_miss_rate::total     0.002938                       # mshr miss rate for overall accesses
system.cpu3.dcache.ReadReq_avg_mshr_miss_latency::switch_cpus3.data 17216.957125                       # average ReadReq mshr miss latency
system.cpu3.dcache.ReadReq_avg_mshr_miss_latency::total 17216.957125                       # average ReadReq mshr miss latency
system.cpu3.dcache.WriteReq_avg_mshr_miss_latency::switch_cpus3.data       148545                       # average WriteReq mshr miss latency
system.cpu3.dcache.WriteReq_avg_mshr_miss_latency::total       148545                       # average WriteReq mshr miss latency
system.cpu3.dcache.demand_avg_mshr_miss_latency::switch_cpus3.data 17226.966503                       # average overall mshr miss latency
system.cpu3.dcache.demand_avg_mshr_miss_latency::total 17226.966503                       # average overall mshr miss latency
system.cpu3.dcache.overall_avg_mshr_miss_latency::switch_cpus3.data 17226.966503                       # average overall mshr miss latency
system.cpu3.dcache.overall_avg_mshr_miss_latency::total 17226.966503                       # average overall mshr miss latency
system.cpu3.dcache.no_allocate_misses               0                       # Number of misses that were no-allocate

---------- End Simulation Statistics   ----------
