
---------- Begin Simulation Statistics ----------
sim_seconds                                  0.035385                       # Number of seconds simulated
sim_ticks                                 35385340644                       # Number of ticks simulated
final_tick                               563301597303                       # Number of ticks from beginning of simulation (restored from checkpoints and never reset)
sim_freq                                 1000000000000                       # Frequency of simulated ticks
host_inst_rate                                 285219                       # Simulator instruction rate (inst/s)
host_op_rate                                   360120                       # Simulator op (including micro ops) rate (op/s)
host_tick_rate                                3057359                       # Simulator tick rate (ticks/s)
host_mem_usage                               16903256                       # Number of bytes of host memory used
host_seconds                                 11573.83                       # Real time elapsed on the host
sim_insts                                  3301074493                       # Number of instructions simulated
sim_ops                                    4167971715                       # Number of ops (including micro ops) simulated
system.physmem.bytes_read::switch_cpus0.inst         1536                       # Number of bytes read from this memory
system.physmem.bytes_read::switch_cpus0.data      1072512                       # Number of bytes read from this memory
system.physmem.bytes_read::switch_cpus1.inst         1280                       # Number of bytes read from this memory
system.physmem.bytes_read::switch_cpus1.data      1642112                       # Number of bytes read from this memory
system.physmem.bytes_read::switch_cpus2.inst         2048                       # Number of bytes read from this memory
system.physmem.bytes_read::switch_cpus2.data       626944                       # Number of bytes read from this memory
system.physmem.bytes_read::total              3346432                       # Number of bytes read from this memory
system.physmem.bytes_inst_read::switch_cpus0.inst         1536                       # Number of instructions bytes read from this memory
system.physmem.bytes_inst_read::switch_cpus1.inst         1280                       # Number of instructions bytes read from this memory
system.physmem.bytes_inst_read::switch_cpus2.inst         2048                       # Number of instructions bytes read from this memory
system.physmem.bytes_inst_read::total            4864                       # Number of instructions bytes read from this memory
system.physmem.bytes_written::writebacks      1706752                       # Number of bytes written to this memory
system.physmem.bytes_written::total           1706752                       # Number of bytes written to this memory
system.physmem.num_reads::switch_cpus0.inst           12                       # Number of read requests responded to by this memory
system.physmem.num_reads::switch_cpus0.data         8379                       # Number of read requests responded to by this memory
system.physmem.num_reads::switch_cpus1.inst           10                       # Number of read requests responded to by this memory
system.physmem.num_reads::switch_cpus1.data        12829                       # Number of read requests responded to by this memory
system.physmem.num_reads::switch_cpus2.inst           16                       # Number of read requests responded to by this memory
system.physmem.num_reads::switch_cpus2.data         4898                       # Number of read requests responded to by this memory
system.physmem.num_reads::total                 26144                       # Number of read requests responded to by this memory
system.physmem.num_writes::writebacks           13334                       # Number of write requests responded to by this memory
system.physmem.num_writes::functional               0                       # Number of write requests responded to by this memory
system.physmem.num_writes::interrupt                0                       # Number of write requests responded to by this memory
system.physmem.num_writes::switch_cpus0.dtb.walker            0                       # Number of write requests responded to by this memory
system.physmem.num_writes::switch_cpus0.itb.walker            0                       # Number of write requests responded to by this memory
system.physmem.num_writes::switch_cpus0.inst            0                       # Number of write requests responded to by this memory
system.physmem.num_writes::switch_cpus0.data            0                       # Number of write requests responded to by this memory
system.physmem.num_writes::switch_cpus1.dtb.walker            0                       # Number of write requests responded to by this memory
system.physmem.num_writes::switch_cpus1.itb.walker            0                       # Number of write requests responded to by this memory
system.physmem.num_writes::switch_cpus1.inst            0                       # Number of write requests responded to by this memory
system.physmem.num_writes::switch_cpus1.data            0                       # Number of write requests responded to by this memory
system.physmem.num_writes::switch_cpus2.dtb.walker            0                       # Number of write requests responded to by this memory
system.physmem.num_writes::switch_cpus2.itb.walker            0                       # Number of write requests responded to by this memory
system.physmem.num_writes::switch_cpus2.inst            0                       # Number of write requests responded to by this memory
system.physmem.num_writes::switch_cpus2.data            0                       # Number of write requests responded to by this memory
system.physmem.num_writes::cpu0.dtb.walker            0                       # Number of write requests responded to by this memory
system.physmem.num_writes::cpu0.itb.walker            0                       # Number of write requests responded to by this memory
system.physmem.num_writes::cpu0.inst                0                       # Number of write requests responded to by this memory
system.physmem.num_writes::cpu0.data                0                       # Number of write requests responded to by this memory
system.physmem.num_writes::cpu1.dtb.walker            0                       # Number of write requests responded to by this memory
system.physmem.num_writes::cpu1.itb.walker            0                       # Number of write requests responded to by this memory
system.physmem.num_writes::cpu1.inst                0                       # Number of write requests responded to by this memory
system.physmem.num_writes::cpu1.data                0                       # Number of write requests responded to by this memory
system.physmem.num_writes::cpu2.dtb.walker            0                       # Number of write requests responded to by this memory
system.physmem.num_writes::cpu2.itb.walker            0                       # Number of write requests responded to by this memory
system.physmem.num_writes::cpu2.inst                0                       # Number of write requests responded to by this memory
system.physmem.num_writes::cpu2.data                0                       # Number of write requests responded to by this memory
system.physmem.num_writes::total                13334                       # Number of write requests responded to by this memory
system.physmem.bw_read::switch_cpus0.inst        43408                       # Total read bandwidth from this memory (bytes/s)
system.physmem.bw_read::switch_cpus0.data     30309501                       # Total read bandwidth from this memory (bytes/s)
system.physmem.bw_read::switch_cpus1.inst        36173                       # Total read bandwidth from this memory (bytes/s)
system.physmem.bw_read::switch_cpus1.data     46406562                       # Total read bandwidth from this memory (bytes/s)
system.physmem.bw_read::switch_cpus2.inst        57877                       # Total read bandwidth from this memory (bytes/s)
system.physmem.bw_read::switch_cpus2.data     17717619                       # Total read bandwidth from this memory (bytes/s)
system.physmem.bw_read::total                94571140                       # Total read bandwidth from this memory (bytes/s)
system.physmem.bw_inst_read::switch_cpus0.inst        43408                       # Instruction read bandwidth from this memory (bytes/s)
system.physmem.bw_inst_read::switch_cpus1.inst        36173                       # Instruction read bandwidth from this memory (bytes/s)
system.physmem.bw_inst_read::switch_cpus2.inst        57877                       # Instruction read bandwidth from this memory (bytes/s)
system.physmem.bw_inst_read::total             137458                       # Instruction read bandwidth from this memory (bytes/s)
system.physmem.bw_write::writebacks          48233307                       # Write bandwidth from this memory (bytes/s)
system.physmem.bw_write::total               48233307                       # Write bandwidth from this memory (bytes/s)
system.physmem.bw_total::writebacks          48233307                       # Total bandwidth to/from this memory (bytes/s)
system.physmem.bw_total::switch_cpus0.inst        43408                       # Total bandwidth to/from this memory (bytes/s)
system.physmem.bw_total::switch_cpus0.data     30309501                       # Total bandwidth to/from this memory (bytes/s)
system.physmem.bw_total::switch_cpus1.inst        36173                       # Total bandwidth to/from this memory (bytes/s)
system.physmem.bw_total::switch_cpus1.data     46406562                       # Total bandwidth to/from this memory (bytes/s)
system.physmem.bw_total::switch_cpus2.inst        57877                       # Total bandwidth to/from this memory (bytes/s)
system.physmem.bw_total::switch_cpus2.data     17717619                       # Total bandwidth to/from this memory (bytes/s)
system.physmem.bw_total::total              142804447                       # Total bandwidth to/from this memory (bytes/s)
system.switch_cpus0.dtb.inst_hits                   0                       # ITB inst hits
system.switch_cpus0.dtb.inst_misses                 0                       # ITB inst misses
system.switch_cpus0.dtb.read_hits                   0                       # DTB read hits
system.switch_cpus0.dtb.read_misses                 0                       # DTB read misses
system.switch_cpus0.dtb.write_hits                  0                       # DTB write hits
system.switch_cpus0.dtb.write_misses                0                       # DTB write misses
system.switch_cpus0.dtb.flush_tlb                   0                       # Number of times complete TLB was flushed
system.switch_cpus0.dtb.flush_tlb_mva               0                       # Number of times TLB was flushed by MVA
system.switch_cpus0.dtb.flush_tlb_mva_asid            0                       # Number of times TLB was flushed by MVA & ASID
system.switch_cpus0.dtb.flush_tlb_asid              0                       # Number of times TLB was flushed by ASID
system.switch_cpus0.dtb.flush_entries               0                       # Number of entries that have been flushed from TLB
system.switch_cpus0.dtb.align_faults                0                       # Number of TLB faults due to alignment restrictions
system.switch_cpus0.dtb.prefetch_faults             0                       # Number of TLB faults due to prefetch
system.switch_cpus0.dtb.domain_faults               0                       # Number of TLB faults due to domain restrictions
system.switch_cpus0.dtb.perms_faults                0                       # Number of TLB faults due to permissions restrictions
system.switch_cpus0.dtb.read_accesses               0                       # DTB read accesses
system.switch_cpus0.dtb.write_accesses              0                       # DTB write accesses
system.switch_cpus0.dtb.inst_accesses               0                       # ITB inst accesses
system.switch_cpus0.dtb.hits                        0                       # DTB hits
system.switch_cpus0.dtb.misses                      0                       # DTB misses
system.switch_cpus0.dtb.accesses                    0                       # DTB accesses
system.switch_cpus0.itb.inst_hits                   0                       # ITB inst hits
system.switch_cpus0.itb.inst_misses                 0                       # ITB inst misses
system.switch_cpus0.itb.read_hits                   0                       # DTB read hits
system.switch_cpus0.itb.read_misses                 0                       # DTB read misses
system.switch_cpus0.itb.write_hits                  0                       # DTB write hits
system.switch_cpus0.itb.write_misses                0                       # DTB write misses
system.switch_cpus0.itb.flush_tlb                   0                       # Number of times complete TLB was flushed
system.switch_cpus0.itb.flush_tlb_mva               0                       # Number of times TLB was flushed by MVA
system.switch_cpus0.itb.flush_tlb_mva_asid            0                       # Number of times TLB was flushed by MVA & ASID
system.switch_cpus0.itb.flush_tlb_asid              0                       # Number of times TLB was flushed by ASID
system.switch_cpus0.itb.flush_entries               0                       # Number of entries that have been flushed from TLB
system.switch_cpus0.itb.align_faults                0                       # Number of TLB faults due to alignment restrictions
system.switch_cpus0.itb.prefetch_faults             0                       # Number of TLB faults due to prefetch
system.switch_cpus0.itb.domain_faults               0                       # Number of TLB faults due to domain restrictions
system.switch_cpus0.itb.perms_faults                0                       # Number of TLB faults due to permissions restrictions
system.switch_cpus0.itb.read_accesses               0                       # DTB read accesses
system.switch_cpus0.itb.write_accesses              0                       # DTB write accesses
system.switch_cpus0.itb.inst_accesses               0                       # ITB inst accesses
system.switch_cpus0.itb.hits                        0                       # DTB hits
system.switch_cpus0.itb.misses                      0                       # DTB misses
system.switch_cpus0.itb.accesses                    0                       # DTB accesses
system.cpu0.workload.num_syscalls                   0                       # Number of system calls
system.switch_cpus0.numCycles                84856933                       # number of cpu cycles simulated
system.switch_cpus0.numWorkItemsStarted             0                       # number of work items this cpu started
system.switch_cpus0.numWorkItemsCompleted            0                       # number of work items this cpu completed
system.switch_cpus0.BPredUnit.lookups        31053190                       # Number of BP lookups
system.switch_cpus0.BPredUnit.condPredicted     25257272                       # Number of conditional branches predicted
system.switch_cpus0.BPredUnit.condIncorrect      2074574                       # Number of conditional branches incorrect
system.switch_cpus0.BPredUnit.BTBLookups     13227167                       # Number of BTB lookups
system.switch_cpus0.BPredUnit.BTBHits        12241657                       # Number of BTB hits
system.switch_cpus0.BPredUnit.BTBCorrect            0                       # Number of correct BTB predictions (this stat may not work properly.
system.switch_cpus0.BPredUnit.usedRAS         3190694                       # Number of times the RAS was used to get a target.
system.switch_cpus0.BPredUnit.RASInCorrect        91495                       # Number of incorrect RAS predictions.
system.switch_cpus0.fetch.icacheStallCycles     34342763                       # Number of cycles fetch is stalled on an Icache miss
system.switch_cpus0.fetch.Insts             169615910                       # Number of instructions fetch has processed
system.switch_cpus0.fetch.Branches           31053190                       # Number of branches that fetch encountered
system.switch_cpus0.fetch.predictedBranches     15432351                       # Number of branches that fetch has predicted taken
system.switch_cpus0.fetch.Cycles             35631002                       # Number of cycles fetch has run and was not squashing or blocked
system.switch_cpus0.fetch.SquashCycles       10649615                       # Number of cycles fetch has spent squashing
system.switch_cpus0.fetch.BlockedCycles       5245770                       # Number of cycles fetch has spent blocked
system.switch_cpus0.fetch.PendingTrapStallCycles           42                       # Number of stall cycles due to pending traps
system.switch_cpus0.fetch.CacheLines         16779210                       # Number of cache lines fetched
system.switch_cpus0.fetch.IcacheSquashes       819854                       # Number of outstanding Icache misses that were squashed
system.switch_cpus0.fetch.rateDist::samples     83759222                       # Number of instructions fetched each cycle (Total)
system.switch_cpus0.fetch.rateDist::mean     2.495026                       # Number of instructions fetched each cycle (Total)
system.switch_cpus0.fetch.rateDist::stdev     3.300753                       # Number of instructions fetched each cycle (Total)
system.switch_cpus0.fetch.rateDist::underflows            0      0.00%      0.00% # Number of instructions fetched each cycle (Total)
system.switch_cpus0.fetch.rateDist::0        48128220     57.46%     57.46% # Number of instructions fetched each cycle (Total)
system.switch_cpus0.fetch.rateDist::1         1908869      2.28%     59.74% # Number of instructions fetched each cycle (Total)
system.switch_cpus0.fetch.rateDist::2         2489384      2.97%     62.71% # Number of instructions fetched each cycle (Total)
system.switch_cpus0.fetch.rateDist::3         3782525      4.52%     67.23% # Number of instructions fetched each cycle (Total)
system.switch_cpus0.fetch.rateDist::4         3667097      4.38%     71.61% # Number of instructions fetched each cycle (Total)
system.switch_cpus0.fetch.rateDist::5         2794118      3.34%     74.94% # Number of instructions fetched each cycle (Total)
system.switch_cpus0.fetch.rateDist::6         1654266      1.98%     76.92% # Number of instructions fetched each cycle (Total)
system.switch_cpus0.fetch.rateDist::7         2496295      2.98%     79.90% # Number of instructions fetched each cycle (Total)
system.switch_cpus0.fetch.rateDist::8        16838448     20.10%    100.00% # Number of instructions fetched each cycle (Total)
system.switch_cpus0.fetch.rateDist::overflows            0      0.00%    100.00% # Number of instructions fetched each cycle (Total)
system.switch_cpus0.fetch.rateDist::min_value            0                       # Number of instructions fetched each cycle (Total)
system.switch_cpus0.fetch.rateDist::max_value            8                       # Number of instructions fetched each cycle (Total)
system.switch_cpus0.fetch.rateDist::total     83759222                       # Number of instructions fetched each cycle (Total)
system.switch_cpus0.fetch.branchRate         0.365948                       # Number of branch fetches per cycle
system.switch_cpus0.fetch.rate               1.998846                       # Number of inst fetches per cycle
system.switch_cpus0.decode.IdleCycles        35482073                       # Number of cycles decode is idle
system.switch_cpus0.decode.BlockedCycles      5131364                       # Number of cycles decode is blocked
system.switch_cpus0.decode.RunCycles         34339204                       # Number of cycles decode is running
system.switch_cpus0.decode.UnblockCycles       267169                       # Number of cycles decode is unblocking
system.switch_cpus0.decode.SquashCycles       8539406                       # Number of cycles decode is squashing
system.switch_cpus0.decode.BranchResolved      5269803                       # Number of times decode resolved a branch
system.switch_cpus0.decode.BranchMispred          261                       # Number of times decode detected a branch misprediction
system.switch_cpus0.decode.DecodedInsts     202920056                       # Number of instructions handled by decode
system.switch_cpus0.decode.SquashedInsts         1326                       # Number of squashed instructions handled by decode
system.switch_cpus0.rename.SquashCycles       8539406                       # Number of cycles rename is squashing
system.switch_cpus0.rename.IdleCycles        37349158                       # Number of cycles rename is idle
system.switch_cpus0.rename.BlockCycles        1010280                       # Number of cycles rename is blocking
system.switch_cpus0.rename.serializeStallCycles      1385290                       # count of cycles rename stalled for serializing inst
system.switch_cpus0.rename.RunCycles         32695410                       # Number of cycles rename is running
system.switch_cpus0.rename.UnblockCycles      2779673                       # Number of cycles rename is unblocking
system.switch_cpus0.rename.RenamedInsts     197052052                       # Number of instructions processed by rename
system.switch_cpus0.rename.ROBFullEvents          890                       # Number of times rename has blocked due to ROB full
system.switch_cpus0.rename.IQFullEvents       1198065                       # Number of times rename has blocked due to IQ full
system.switch_cpus0.rename.LSQFullEvents       875284                       # Number of times rename has blocked due to LSQ full
system.switch_cpus0.rename.FullRegisterEvents            5                       # Number of times there has been no free registers
system.switch_cpus0.rename.RenamedOperands    274522933                       # Number of destination operands rename has renamed
system.switch_cpus0.rename.RenameLookups    917746544                       # Number of register rename lookups that rename has made
system.switch_cpus0.rename.int_rename_lookups    917746544                       # Number of integer rename lookups
system.switch_cpus0.rename.CommittedMaps    170749012                       # Number of HB maps that are committed
system.switch_cpus0.rename.UndoneMaps       103773850                       # Number of HB maps that are undone due to squashing
system.switch_cpus0.rename.serializingInsts        42070                       # count of serializing insts renamed
system.switch_cpus0.rename.tempSerializingInsts        23765                       # count of temporary serializing insts renamed
system.switch_cpus0.rename.skidInsts          7863029                       # count of insts added to the skid buffer
system.switch_cpus0.memDep0.insertedLoads     18260753                       # Number of loads inserted to the mem dependence unit.
system.switch_cpus0.memDep0.insertedStores      9692492                       # Number of stores inserted to the mem dependence unit.
system.switch_cpus0.memDep0.conflictingLoads       187487                       # Number of conflicting loads.
system.switch_cpus0.memDep0.conflictingStores      3201429                       # Number of conflicting stores.
system.switch_cpus0.iq.iqInstsAdded         183163616                       # Number of instructions added to the IQ (excludes non-spec)
system.switch_cpus0.iq.iqNonSpecInstsAdded        39886                       # Number of non-speculative instructions added to the IQ
system.switch_cpus0.iq.iqInstsIssued        147556402                       # Number of instructions issued
system.switch_cpus0.iq.iqSquashedInstsIssued       270187                       # Number of squashed instructions issued
system.switch_cpus0.iq.iqSquashedInstsExamined     59553900                       # Number of squashed instructions iterated over during squash; mainly for profiling
system.switch_cpus0.iq.iqSquashedOperandsExamined    181082614                       # Number of squashed operands that are examined and possibly removed from graph
system.switch_cpus0.iq.iqSquashedNonSpecRemoved         6550                       # Number of squashed non-spec instructions that were removed
system.switch_cpus0.iq.issued_per_cycle::samples     83759222                       # Number of insts issued each cycle
system.switch_cpus0.iq.issued_per_cycle::mean     1.761674                       # Number of insts issued each cycle
system.switch_cpus0.iq.issued_per_cycle::stdev     1.897722                       # Number of insts issued each cycle
system.switch_cpus0.iq.issued_per_cycle::underflows            0      0.00%      0.00% # Number of insts issued each cycle
system.switch_cpus0.iq.issued_per_cycle::0     28963147     34.58%     34.58% # Number of insts issued each cycle
system.switch_cpus0.iq.issued_per_cycle::1     18447319     22.02%     56.60% # Number of insts issued each cycle
system.switch_cpus0.iq.issued_per_cycle::2     11933355     14.25%     70.85% # Number of insts issued each cycle
system.switch_cpus0.iq.issued_per_cycle::3      8120712      9.70%     80.55% # Number of insts issued each cycle
system.switch_cpus0.iq.issued_per_cycle::4      7607859      9.08%     89.63% # Number of insts issued each cycle
system.switch_cpus0.iq.issued_per_cycle::5      4060555      4.85%     94.48% # Number of insts issued each cycle
system.switch_cpus0.iq.issued_per_cycle::6      2983324      3.56%     98.04% # Number of insts issued each cycle
system.switch_cpus0.iq.issued_per_cycle::7       897526      1.07%     99.11% # Number of insts issued each cycle
system.switch_cpus0.iq.issued_per_cycle::8       745425      0.89%    100.00% # Number of insts issued each cycle
system.switch_cpus0.iq.issued_per_cycle::overflows            0      0.00%    100.00% # Number of insts issued each cycle
system.switch_cpus0.iq.issued_per_cycle::min_value            0                       # Number of insts issued each cycle
system.switch_cpus0.iq.issued_per_cycle::max_value            8                       # Number of insts issued each cycle
system.switch_cpus0.iq.issued_per_cycle::total     83759222                       # Number of insts issued each cycle
system.switch_cpus0.iq.fu_full::No_OpClass            0      0.00%      0.00% # attempts to use FU when none available
system.switch_cpus0.iq.fu_full::IntAlu         724152     69.14%     69.14% # attempts to use FU when none available
system.switch_cpus0.iq.fu_full::IntMult             6      0.00%     69.14% # attempts to use FU when none available
system.switch_cpus0.iq.fu_full::IntDiv              0      0.00%     69.14% # attempts to use FU when none available
system.switch_cpus0.iq.fu_full::FloatAdd            0      0.00%     69.14% # attempts to use FU when none available
system.switch_cpus0.iq.fu_full::FloatCmp            0      0.00%     69.14% # attempts to use FU when none available
system.switch_cpus0.iq.fu_full::FloatCvt            0      0.00%     69.14% # attempts to use FU when none available
system.switch_cpus0.iq.fu_full::FloatMult            0      0.00%     69.14% # attempts to use FU when none available
system.switch_cpus0.iq.fu_full::FloatDiv            0      0.00%     69.14% # attempts to use FU when none available
system.switch_cpus0.iq.fu_full::FloatSqrt            0      0.00%     69.14% # attempts to use FU when none available
system.switch_cpus0.iq.fu_full::SimdAdd             0      0.00%     69.14% # attempts to use FU when none available
system.switch_cpus0.iq.fu_full::SimdAddAcc            0      0.00%     69.14% # attempts to use FU when none available
system.switch_cpus0.iq.fu_full::SimdAlu             0      0.00%     69.14% # attempts to use FU when none available
system.switch_cpus0.iq.fu_full::SimdCmp             0      0.00%     69.14% # attempts to use FU when none available
system.switch_cpus0.iq.fu_full::SimdCvt             0      0.00%     69.14% # attempts to use FU when none available
system.switch_cpus0.iq.fu_full::SimdMisc            0      0.00%     69.14% # attempts to use FU when none available
system.switch_cpus0.iq.fu_full::SimdMult            0      0.00%     69.14% # attempts to use FU when none available
system.switch_cpus0.iq.fu_full::SimdMultAcc            0      0.00%     69.14% # attempts to use FU when none available
system.switch_cpus0.iq.fu_full::SimdShift            0      0.00%     69.14% # attempts to use FU when none available
system.switch_cpus0.iq.fu_full::SimdShiftAcc            0      0.00%     69.14% # attempts to use FU when none available
system.switch_cpus0.iq.fu_full::SimdSqrt            0      0.00%     69.14% # attempts to use FU when none available
system.switch_cpus0.iq.fu_full::SimdFloatAdd            0      0.00%     69.14% # attempts to use FU when none available
system.switch_cpus0.iq.fu_full::SimdFloatAlu            0      0.00%     69.14% # attempts to use FU when none available
system.switch_cpus0.iq.fu_full::SimdFloatCmp            0      0.00%     69.14% # attempts to use FU when none available
system.switch_cpus0.iq.fu_full::SimdFloatCvt            0      0.00%     69.14% # attempts to use FU when none available
system.switch_cpus0.iq.fu_full::SimdFloatDiv            0      0.00%     69.14% # attempts to use FU when none available
system.switch_cpus0.iq.fu_full::SimdFloatMisc            0      0.00%     69.14% # attempts to use FU when none available
system.switch_cpus0.iq.fu_full::SimdFloatMult            0      0.00%     69.14% # attempts to use FU when none available
system.switch_cpus0.iq.fu_full::SimdFloatMultAcc            0      0.00%     69.14% # attempts to use FU when none available
system.switch_cpus0.iq.fu_full::SimdFloatSqrt            0      0.00%     69.14% # attempts to use FU when none available
system.switch_cpus0.iq.fu_full::MemRead        149657     14.29%     83.43% # attempts to use FU when none available
system.switch_cpus0.iq.fu_full::MemWrite       173588     16.57%    100.00% # attempts to use FU when none available
system.switch_cpus0.iq.fu_full::IprAccess            0      0.00%    100.00% # attempts to use FU when none available
system.switch_cpus0.iq.fu_full::InstPrefetch            0      0.00%    100.00% # attempts to use FU when none available
system.switch_cpus0.iq.FU_type_0::No_OpClass            0      0.00%      0.00% # Type of FU issued
system.switch_cpus0.iq.FU_type_0::IntAlu    122788140     83.21%     83.21% # Type of FU issued
system.switch_cpus0.iq.FU_type_0::IntMult      2083990      1.41%     84.63% # Type of FU issued
system.switch_cpus0.iq.FU_type_0::IntDiv            0      0.00%     84.63% # Type of FU issued
system.switch_cpus0.iq.FU_type_0::FloatAdd            0      0.00%     84.63% # Type of FU issued
system.switch_cpus0.iq.FU_type_0::FloatCmp            0      0.00%     84.63% # Type of FU issued
system.switch_cpus0.iq.FU_type_0::FloatCvt            0      0.00%     84.63% # Type of FU issued
system.switch_cpus0.iq.FU_type_0::FloatMult            0      0.00%     84.63% # Type of FU issued
system.switch_cpus0.iq.FU_type_0::FloatDiv            0      0.00%     84.63% # Type of FU issued
system.switch_cpus0.iq.FU_type_0::FloatSqrt            0      0.00%     84.63% # Type of FU issued
system.switch_cpus0.iq.FU_type_0::SimdAdd            0      0.00%     84.63% # Type of FU issued
system.switch_cpus0.iq.FU_type_0::SimdAddAcc            0      0.00%     84.63% # Type of FU issued
system.switch_cpus0.iq.FU_type_0::SimdAlu            0      0.00%     84.63% # Type of FU issued
system.switch_cpus0.iq.FU_type_0::SimdCmp            0      0.00%     84.63% # Type of FU issued
system.switch_cpus0.iq.FU_type_0::SimdCvt            0      0.00%     84.63% # Type of FU issued
system.switch_cpus0.iq.FU_type_0::SimdMisc            0      0.00%     84.63% # Type of FU issued
system.switch_cpus0.iq.FU_type_0::SimdMult            0      0.00%     84.63% # Type of FU issued
system.switch_cpus0.iq.FU_type_0::SimdMultAcc            0      0.00%     84.63% # Type of FU issued
system.switch_cpus0.iq.FU_type_0::SimdShift            0      0.00%     84.63% # Type of FU issued
system.switch_cpus0.iq.FU_type_0::SimdShiftAcc            0      0.00%     84.63% # Type of FU issued
system.switch_cpus0.iq.FU_type_0::SimdSqrt            0      0.00%     84.63% # Type of FU issued
system.switch_cpus0.iq.FU_type_0::SimdFloatAdd            0      0.00%     84.63% # Type of FU issued
system.switch_cpus0.iq.FU_type_0::SimdFloatAlu            0      0.00%     84.63% # Type of FU issued
system.switch_cpus0.iq.FU_type_0::SimdFloatCmp            0      0.00%     84.63% # Type of FU issued
system.switch_cpus0.iq.FU_type_0::SimdFloatCvt            0      0.00%     84.63% # Type of FU issued
system.switch_cpus0.iq.FU_type_0::SimdFloatDiv            0      0.00%     84.63% # Type of FU issued
system.switch_cpus0.iq.FU_type_0::SimdFloatMisc        16669      0.01%     84.64% # Type of FU issued
system.switch_cpus0.iq.FU_type_0::SimdFloatMult            0      0.00%     84.64% # Type of FU issued
system.switch_cpus0.iq.FU_type_0::SimdFloatMultAcc            0      0.00%     84.64% # Type of FU issued
system.switch_cpus0.iq.FU_type_0::SimdFloatSqrt            0      0.00%     84.64% # Type of FU issued
system.switch_cpus0.iq.FU_type_0::MemRead     14553901      9.86%     94.50% # Type of FU issued
system.switch_cpus0.iq.FU_type_0::MemWrite      8113702      5.50%    100.00% # Type of FU issued
system.switch_cpus0.iq.FU_type_0::IprAccess            0      0.00%    100.00% # Type of FU issued
system.switch_cpus0.iq.FU_type_0::InstPrefetch            0      0.00%    100.00% # Type of FU issued
system.switch_cpus0.iq.FU_type_0::total     147556402                       # Type of FU issued
system.switch_cpus0.iq.rate                  1.738884                       # Inst issue rate
system.switch_cpus0.iq.fu_busy_cnt            1047403                       # FU busy when requested
system.switch_cpus0.iq.fu_busy_rate          0.007098                       # FU busy rate (busy events/executed inst)
system.switch_cpus0.iq.int_inst_queue_reads    380189608                       # Number of integer instruction queue reads
system.switch_cpus0.iq.int_inst_queue_writes    242758222                       # Number of integer instruction queue writes
system.switch_cpus0.iq.int_inst_queue_wakeup_accesses    143410295                       # Number of integer instruction queue wakeup accesses
system.switch_cpus0.iq.fp_inst_queue_reads            0                       # Number of floating instruction queue reads
system.switch_cpus0.iq.fp_inst_queue_writes            0                       # Number of floating instruction queue writes
system.switch_cpus0.iq.fp_inst_queue_wakeup_accesses            0                       # Number of floating instruction queue wakeup accesses
system.switch_cpus0.iq.int_alu_accesses     148603805                       # Number of integer alu accesses
system.switch_cpus0.iq.fp_alu_accesses              0                       # Number of floating point alu accesses
system.switch_cpus0.iew.lsq.thread0.forwLoads       501537                       # Number of loads that had data forwarded from stores
system.switch_cpus0.iew.lsq.thread0.invAddrLoads            0                       # Number of loads ignored due to an invalid address
system.switch_cpus0.iew.lsq.thread0.squashedLoads      6992822                       # Number of loads squashed
system.switch_cpus0.iew.lsq.thread0.ignoredResponses         2238                       # Number of memory responses ignored because the instruction is squashed
system.switch_cpus0.iew.lsq.thread0.memOrderViolation          862                       # Number of memory ordering violations
system.switch_cpus0.iew.lsq.thread0.squashedStores      2470043                       # Number of stores squashed
system.switch_cpus0.iew.lsq.thread0.invAddrSwpfs            0                       # Number of software prefetches ignored due to an invalid address
system.switch_cpus0.iew.lsq.thread0.blockedLoads            0                       # Number of blocked loads due to partial load-store forwarding
system.switch_cpus0.iew.lsq.thread0.rescheduledLoads            0                       # Number of loads that were rescheduled
system.switch_cpus0.iew.lsq.thread0.cacheBlocked          110                       # Number of times an access to memory failed due to the cache being blocked
system.switch_cpus0.iew.iewIdleCycles               0                       # Number of cycles IEW is idle
system.switch_cpus0.iew.iewSquashCycles       8539406                       # Number of cycles IEW is squashing
system.switch_cpus0.iew.iewBlockCycles         585872                       # Number of cycles IEW is blocking
system.switch_cpus0.iew.iewUnblockCycles        97673                       # Number of cycles IEW is unblocking
system.switch_cpus0.iew.iewDispatchedInsts    183203507                       # Number of instructions dispatched to IQ
system.switch_cpus0.iew.iewDispSquashedInsts      1188424                       # Number of squashed instructions skipped by dispatch
system.switch_cpus0.iew.iewDispLoadInsts     18260753                       # Number of dispatched load instructions
system.switch_cpus0.iew.iewDispStoreInsts      9692492                       # Number of dispatched store instructions
system.switch_cpus0.iew.iewDispNonSpecInsts        23218                       # Number of dispatched non-speculative instructions
system.switch_cpus0.iew.iewIQFullEvents         73870                       # Number of times the IQ has become full, causing a stall
system.switch_cpus0.iew.iewLSQFullEvents            0                       # Number of times the LSQ has become full, causing a stall
system.switch_cpus0.iew.memOrderViolationEvents          862                       # Number of memory order violations
system.switch_cpus0.iew.predictedTakenIncorrect      1269503                       # Number of branches that were predicted taken incorrectly
system.switch_cpus0.iew.predictedNotTakenIncorrect      1168644                       # Number of branches that were predicted not taken incorrectly
system.switch_cpus0.iew.branchMispredicts      2438147                       # Number of branch mispredicts detected at execute
system.switch_cpus0.iew.iewExecutedInsts    144719849                       # Number of executed instructions
system.switch_cpus0.iew.iewExecLoadInsts     13702311                       # Number of load instructions executed
system.switch_cpus0.iew.iewExecSquashedInsts      2836545                       # Number of squashed instructions skipped in execute
system.switch_cpus0.iew.exec_swp                    0                       # number of swp insts executed
system.switch_cpus0.iew.exec_nop                    5                       # number of nop insts executed
system.switch_cpus0.iew.exec_refs            21630618                       # number of memory reference insts executed
system.switch_cpus0.iew.exec_branches        20268030                       # Number of branches executed
system.switch_cpus0.iew.exec_stores           7928307                       # Number of stores executed
system.switch_cpus0.iew.exec_rate            1.705457                       # Inst execution rate
system.switch_cpus0.iew.wb_sent             143447859                       # cumulative count of insts sent to commit
system.switch_cpus0.iew.wb_count            143410295                       # cumulative count of insts written-back
system.switch_cpus0.iew.wb_producers         92134184                       # num instructions producing a value
system.switch_cpus0.iew.wb_consumers        258769754                       # num instructions consuming a value
system.switch_cpus0.iew.wb_penalized                0                       # number of instrctions required to write to 'other' IQ
system.switch_cpus0.iew.wb_rate              1.690024                       # insts written-back per cycle
system.switch_cpus0.iew.wb_fanout            0.356047                       # average fanout of values written-back
system.switch_cpus0.iew.wb_penalized_rate            0                       # fraction of instructions written-back that wrote to 'other' IQ
system.switch_cpus0.commit.commitCommittedInsts    100000000                       # The number of committed instructions
system.switch_cpus0.commit.commitCommittedOps    122904423                       # The number of committed instructions
system.switch_cpus0.commit.commitSquashedInsts     60299326                       # The number of squashed insts skipped by commit
system.switch_cpus0.commit.commitNonSpecStalls        33336                       # The number of times commit has been forced to stall to communicate backwards
system.switch_cpus0.commit.branchMispredicts      2109020                       # The number of times a branch was mispredicted
system.switch_cpus0.commit.committed_per_cycle::samples     75219816                       # Number of insts commited each cycle
system.switch_cpus0.commit.committed_per_cycle::mean     1.633937                       # Number of insts commited each cycle
system.switch_cpus0.commit.committed_per_cycle::stdev     2.153843                       # Number of insts commited each cycle
system.switch_cpus0.commit.committed_per_cycle::underflows            0      0.00%      0.00% # Number of insts commited each cycle
system.switch_cpus0.commit.committed_per_cycle::0     28861579     38.37%     38.37% # Number of insts commited each cycle
system.switch_cpus0.commit.committed_per_cycle::1     21677402     28.82%     67.19% # Number of insts commited each cycle
system.switch_cpus0.commit.committed_per_cycle::2      7983561     10.61%     77.80% # Number of insts commited each cycle
system.switch_cpus0.commit.committed_per_cycle::3      4572637      6.08%     83.88% # Number of insts commited each cycle
system.switch_cpus0.commit.committed_per_cycle::4      3817131      5.07%     88.96% # Number of insts commited each cycle
system.switch_cpus0.commit.committed_per_cycle::5      1886017      2.51%     91.46% # Number of insts commited each cycle
system.switch_cpus0.commit.committed_per_cycle::6      1864308      2.48%     93.94% # Number of insts commited each cycle
system.switch_cpus0.commit.committed_per_cycle::7       799917      1.06%     95.00% # Number of insts commited each cycle
system.switch_cpus0.commit.committed_per_cycle::8      3757264      5.00%    100.00% # Number of insts commited each cycle
system.switch_cpus0.commit.committed_per_cycle::overflows            0      0.00%    100.00% # Number of insts commited each cycle
system.switch_cpus0.commit.committed_per_cycle::min_value            0                       # Number of insts commited each cycle
system.switch_cpus0.commit.committed_per_cycle::max_value            8                       # Number of insts commited each cycle
system.switch_cpus0.commit.committed_per_cycle::total     75219816                       # Number of insts commited each cycle
system.switch_cpus0.commit.committedInsts    100000000                       # Number of instructions committed
system.switch_cpus0.commit.committedOps     122904423                       # Number of ops (including micro ops) committed
system.switch_cpus0.commit.swp_count                0                       # Number of s/w prefetches committed
system.switch_cpus0.commit.refs              18490372                       # Number of memory references committed
system.switch_cpus0.commit.loads             11267928                       # Number of loads committed
system.switch_cpus0.commit.membars              16668                       # Number of memory barriers committed
system.switch_cpus0.commit.branches          17627285                       # Number of branches committed
system.switch_cpus0.commit.fp_insts                 0                       # Number of committed floating point instructions.
system.switch_cpus0.commit.int_insts        110781810                       # Number of committed integer instructions.
system.switch_cpus0.commit.function_calls      2507803                       # Number of function calls committed.
system.switch_cpus0.commit.bw_lim_events      3757264                       # number cycles where commit BW limit reached
system.switch_cpus0.commit.bw_limited               0                       # number of insts not committed due to BW limits
system.switch_cpus0.rob.rob_reads           254666301                       # The number of ROB reads
system.switch_cpus0.rob.rob_writes          374951373                       # The number of ROB writes
system.switch_cpus0.timesIdled                  32952                       # Number of times that the entire CPU went into an idle state and unscheduled itself
system.switch_cpus0.idleCycles                1097711                       # Total number of cycles that the CPU has spent unscheduled due to idling
system.switch_cpus0.committedInsts          100000000                       # Number of Instructions Simulated
system.switch_cpus0.committedOps            122904423                       # Number of Ops (including micro ops) Simulated
system.switch_cpus0.committedInsts_total    100000000                       # Number of Instructions Simulated
system.switch_cpus0.cpi                      0.848569                       # CPI: Cycles Per Instruction
system.switch_cpus0.cpi_total                0.848569                       # CPI: Total CPI of All Threads
system.switch_cpus0.ipc                      1.178454                       # IPC: Instructions Per Cycle
system.switch_cpus0.ipc_total                1.178454                       # IPC: Total IPC of All Threads
system.switch_cpus0.int_regfile_reads       651240333                       # number of integer regfile reads
system.switch_cpus0.int_regfile_writes      198067812                       # number of integer regfile writes
system.switch_cpus0.misc_regfile_reads      187428576                       # number of misc regfile reads
system.switch_cpus0.misc_regfile_writes         33336                       # number of misc regfile writes
system.switch_cpus1.dtb.inst_hits                   0                       # ITB inst hits
system.switch_cpus1.dtb.inst_misses                 0                       # ITB inst misses
system.switch_cpus1.dtb.read_hits                   0                       # DTB read hits
system.switch_cpus1.dtb.read_misses                 0                       # DTB read misses
system.switch_cpus1.dtb.write_hits                  0                       # DTB write hits
system.switch_cpus1.dtb.write_misses                0                       # DTB write misses
system.switch_cpus1.dtb.flush_tlb                   0                       # Number of times complete TLB was flushed
system.switch_cpus1.dtb.flush_tlb_mva               0                       # Number of times TLB was flushed by MVA
system.switch_cpus1.dtb.flush_tlb_mva_asid            0                       # Number of times TLB was flushed by MVA & ASID
system.switch_cpus1.dtb.flush_tlb_asid              0                       # Number of times TLB was flushed by ASID
system.switch_cpus1.dtb.flush_entries               0                       # Number of entries that have been flushed from TLB
system.switch_cpus1.dtb.align_faults                0                       # Number of TLB faults due to alignment restrictions
system.switch_cpus1.dtb.prefetch_faults             0                       # Number of TLB faults due to prefetch
system.switch_cpus1.dtb.domain_faults               0                       # Number of TLB faults due to domain restrictions
system.switch_cpus1.dtb.perms_faults                0                       # Number of TLB faults due to permissions restrictions
system.switch_cpus1.dtb.read_accesses               0                       # DTB read accesses
system.switch_cpus1.dtb.write_accesses              0                       # DTB write accesses
system.switch_cpus1.dtb.inst_accesses               0                       # ITB inst accesses
system.switch_cpus1.dtb.hits                        0                       # DTB hits
system.switch_cpus1.dtb.misses                      0                       # DTB misses
system.switch_cpus1.dtb.accesses                    0                       # DTB accesses
system.switch_cpus1.itb.inst_hits                   0                       # ITB inst hits
system.switch_cpus1.itb.inst_misses                 0                       # ITB inst misses
system.switch_cpus1.itb.read_hits                   0                       # DTB read hits
system.switch_cpus1.itb.read_misses                 0                       # DTB read misses
system.switch_cpus1.itb.write_hits                  0                       # DTB write hits
system.switch_cpus1.itb.write_misses                0                       # DTB write misses
system.switch_cpus1.itb.flush_tlb                   0                       # Number of times complete TLB was flushed
system.switch_cpus1.itb.flush_tlb_mva               0                       # Number of times TLB was flushed by MVA
system.switch_cpus1.itb.flush_tlb_mva_asid            0                       # Number of times TLB was flushed by MVA & ASID
system.switch_cpus1.itb.flush_tlb_asid              0                       # Number of times TLB was flushed by ASID
system.switch_cpus1.itb.flush_entries               0                       # Number of entries that have been flushed from TLB
system.switch_cpus1.itb.align_faults                0                       # Number of TLB faults due to alignment restrictions
system.switch_cpus1.itb.prefetch_faults             0                       # Number of TLB faults due to prefetch
system.switch_cpus1.itb.domain_faults               0                       # Number of TLB faults due to domain restrictions
system.switch_cpus1.itb.perms_faults                0                       # Number of TLB faults due to permissions restrictions
system.switch_cpus1.itb.read_accesses               0                       # DTB read accesses
system.switch_cpus1.itb.write_accesses              0                       # DTB write accesses
system.switch_cpus1.itb.inst_accesses               0                       # ITB inst accesses
system.switch_cpus1.itb.hits                        0                       # DTB hits
system.switch_cpus1.itb.misses                      0                       # DTB misses
system.switch_cpus1.itb.accesses                    0                       # DTB accesses
system.cpu1.workload.num_syscalls                   0                       # Number of system calls
system.switch_cpus1.numCycles                84856933                       # number of cpu cycles simulated
system.switch_cpus1.numWorkItemsStarted             0                       # number of work items this cpu started
system.switch_cpus1.numWorkItemsCompleted            0                       # number of work items this cpu completed
system.switch_cpus1.BPredUnit.lookups        30922644                       # Number of BP lookups
system.switch_cpus1.BPredUnit.condPredicted     25362141                       # Number of conditional branches predicted
system.switch_cpus1.BPredUnit.condIncorrect      2012793                       # Number of conditional branches incorrect
system.switch_cpus1.BPredUnit.BTBLookups     13086351                       # Number of BTB lookups
system.switch_cpus1.BPredUnit.BTBHits        12076053                       # Number of BTB hits
system.switch_cpus1.BPredUnit.BTBCorrect            0                       # Number of correct BTB predictions (this stat may not work properly.
system.switch_cpus1.BPredUnit.usedRAS         3151518                       # Number of times the RAS was used to get a target.
system.switch_cpus1.BPredUnit.RASInCorrect        86977                       # Number of incorrect RAS predictions.
system.switch_cpus1.fetch.icacheStallCycles     31955481                       # Number of cycles fetch is stalled on an Icache miss
system.switch_cpus1.fetch.Insts             169871160                       # Number of instructions fetch has processed
system.switch_cpus1.fetch.Branches           30922644                       # Number of branches that fetch encountered
system.switch_cpus1.fetch.predictedBranches     15227571                       # Number of branches that fetch has predicted taken
system.switch_cpus1.fetch.Cycles             36510367                       # Number of cycles fetch has run and was not squashing or blocked
system.switch_cpus1.fetch.SquashCycles       10784605                       # Number of cycles fetch has spent squashing
system.switch_cpus1.fetch.BlockedCycles       6508570                       # Number of cycles fetch has spent blocked
system.switch_cpus1.fetch.CacheLines         15632961                       # Number of cache lines fetched
system.switch_cpus1.fetch.IcacheSquashes       806332                       # Number of outstanding Icache misses that were squashed
system.switch_cpus1.fetch.rateDist::samples     83713783                       # Number of instructions fetched each cycle (Total)
system.switch_cpus1.fetch.rateDist::mean     2.493736                       # Number of instructions fetched each cycle (Total)
system.switch_cpus1.fetch.rateDist::stdev     3.335164                       # Number of instructions fetched each cycle (Total)
system.switch_cpus1.fetch.rateDist::underflows            0      0.00%      0.00% # Number of instructions fetched each cycle (Total)
system.switch_cpus1.fetch.rateDist::0        47203416     56.39%     56.39% # Number of instructions fetched each cycle (Total)
system.switch_cpus1.fetch.rateDist::1         3640930      4.35%     60.74% # Number of instructions fetched each cycle (Total)
system.switch_cpus1.fetch.rateDist::2         3190383      3.81%     64.55% # Number of instructions fetched each cycle (Total)
system.switch_cpus1.fetch.rateDist::3         3435184      4.10%     68.65% # Number of instructions fetched each cycle (Total)
system.switch_cpus1.fetch.rateDist::4         3011514      3.60%     72.25% # Number of instructions fetched each cycle (Total)
system.switch_cpus1.fetch.rateDist::5         1570228      1.88%     74.12% # Number of instructions fetched each cycle (Total)
system.switch_cpus1.fetch.rateDist::6         1026509      1.23%     75.35% # Number of instructions fetched each cycle (Total)
system.switch_cpus1.fetch.rateDist::7         2708352      3.24%     78.59% # Number of instructions fetched each cycle (Total)
system.switch_cpus1.fetch.rateDist::8        17927267     21.41%    100.00% # Number of instructions fetched each cycle (Total)
system.switch_cpus1.fetch.rateDist::overflows            0      0.00%    100.00% # Number of instructions fetched each cycle (Total)
system.switch_cpus1.fetch.rateDist::min_value            0                       # Number of instructions fetched each cycle (Total)
system.switch_cpus1.fetch.rateDist::max_value            8                       # Number of instructions fetched each cycle (Total)
system.switch_cpus1.fetch.rateDist::total     83713783                       # Number of instructions fetched each cycle (Total)
system.switch_cpus1.fetch.branchRate         0.364409                       # Number of branch fetches per cycle
system.switch_cpus1.fetch.rate               2.001854                       # Number of inst fetches per cycle
system.switch_cpus1.decode.IdleCycles        33611176                       # Number of cycles decode is idle
system.switch_cpus1.decode.BlockedCycles      6093309                       # Number of cycles decode is blocked
system.switch_cpus1.decode.RunCycles         34734256                       # Number of cycles decode is running
system.switch_cpus1.decode.UnblockCycles       542108                       # Number of cycles decode is unblocking
system.switch_cpus1.decode.SquashCycles       8732932                       # Number of cycles decode is squashing
system.switch_cpus1.decode.BranchResolved      5067880                       # Number of times decode resolved a branch
system.switch_cpus1.decode.BranchMispred         6453                       # Number of times decode detected a branch misprediction
system.switch_cpus1.decode.DecodedInsts     201472235                       # Number of instructions handled by decode
system.switch_cpus1.decode.SquashedInsts        50922                       # Number of squashed instructions handled by decode
system.switch_cpus1.rename.SquashCycles       8732932                       # Number of cycles rename is squashing
system.switch_cpus1.rename.IdleCycles        35280638                       # Number of cycles rename is idle
system.switch_cpus1.rename.BlockCycles        2605425                       # Number of cycles rename is blocking
system.switch_cpus1.rename.serializeStallCycles       810216                       # count of cycles rename stalled for serializing inst
system.switch_cpus1.rename.RunCycles         33575900                       # Number of cycles rename is running
system.switch_cpus1.rename.UnblockCycles      2708670                       # Number of cycles rename is unblocking
system.switch_cpus1.rename.RenamedInsts     194622879                       # Number of instructions processed by rename
system.switch_cpus1.rename.ROBFullEvents        12110                       # Number of times rename has blocked due to ROB full
system.switch_cpus1.rename.IQFullEvents       1690034                       # Number of times rename has blocked due to IQ full
system.switch_cpus1.rename.LSQFullEvents       746211                       # Number of times rename has blocked due to LSQ full
system.switch_cpus1.rename.FullRegisterEvents           33                       # Number of times there has been no free registers
system.switch_cpus1.rename.RenamedOperands    270353126                       # Number of destination operands rename has renamed
system.switch_cpus1.rename.RenameLookups    907567030                       # Number of register rename lookups that rename has made
system.switch_cpus1.rename.int_rename_lookups    907567030                       # Number of integer rename lookups
system.switch_cpus1.rename.CommittedMaps    167864913                       # Number of HB maps that are committed
system.switch_cpus1.rename.UndoneMaps       102488192                       # Number of HB maps that are undone due to squashing
system.switch_cpus1.rename.serializingInsts        33923                       # count of serializing insts renamed
system.switch_cpus1.rename.tempSerializingInsts        17932                       # count of temporary serializing insts renamed
system.switch_cpus1.rename.skidInsts          7210548                       # count of insts added to the skid buffer
system.switch_cpus1.memDep0.insertedLoads     19161820                       # Number of loads inserted to the mem dependence unit.
system.switch_cpus1.memDep0.insertedStores      9987291                       # Number of stores inserted to the mem dependence unit.
system.switch_cpus1.memDep0.conflictingLoads       240999                       # Number of conflicting loads.
system.switch_cpus1.memDep0.conflictingStores      3087189                       # Number of conflicting stores.
system.switch_cpus1.iq.iqInstsAdded         183479663                       # Number of instructions added to the IQ (excludes non-spec)
system.switch_cpus1.iq.iqNonSpecInstsAdded        33906                       # Number of non-speculative instructions added to the IQ
system.switch_cpus1.iq.iqInstsIssued        147454837                       # Number of instructions issued
system.switch_cpus1.iq.iqSquashedInstsIssued       281443                       # Number of squashed instructions issued
system.switch_cpus1.iq.iqSquashedInstsExamined     60876746                       # Number of squashed instructions iterated over during squash; mainly for profiling
system.switch_cpus1.iq.iqSquashedOperandsExamined    185941579                       # Number of squashed operands that are examined and possibly removed from graph
system.switch_cpus1.iq.iqSquashedNonSpecRemoved         1926                       # Number of squashed non-spec instructions that were removed
system.switch_cpus1.iq.issued_per_cycle::samples     83713783                       # Number of insts issued each cycle
system.switch_cpus1.iq.issued_per_cycle::mean     1.761416                       # Number of insts issued each cycle
system.switch_cpus1.iq.issued_per_cycle::stdev     1.910464                       # Number of insts issued each cycle
system.switch_cpus1.iq.issued_per_cycle::underflows            0      0.00%      0.00% # Number of insts issued each cycle
system.switch_cpus1.iq.issued_per_cycle::0     29645766     35.41%     35.41% # Number of insts issued each cycle
system.switch_cpus1.iq.issued_per_cycle::1     17825080     21.29%     56.71% # Number of insts issued each cycle
system.switch_cpus1.iq.issued_per_cycle::2     11885706     14.20%     70.90% # Number of insts issued each cycle
system.switch_cpus1.iq.issued_per_cycle::3      7610399      9.09%     80.00% # Number of insts issued each cycle
system.switch_cpus1.iq.issued_per_cycle::4      7547387      9.02%     89.01% # Number of insts issued each cycle
system.switch_cpus1.iq.issued_per_cycle::5      4415838      5.27%     94.29% # Number of insts issued each cycle
system.switch_cpus1.iq.issued_per_cycle::6      3382150      4.04%     98.33% # Number of insts issued each cycle
system.switch_cpus1.iq.issued_per_cycle::7       746146      0.89%     99.22% # Number of insts issued each cycle
system.switch_cpus1.iq.issued_per_cycle::8       655311      0.78%    100.00% # Number of insts issued each cycle
system.switch_cpus1.iq.issued_per_cycle::overflows            0      0.00%    100.00% # Number of insts issued each cycle
system.switch_cpus1.iq.issued_per_cycle::min_value            0                       # Number of insts issued each cycle
system.switch_cpus1.iq.issued_per_cycle::max_value            8                       # Number of insts issued each cycle
system.switch_cpus1.iq.issued_per_cycle::total     83713783                       # Number of insts issued each cycle
system.switch_cpus1.iq.fu_full::No_OpClass            0      0.00%      0.00% # attempts to use FU when none available
system.switch_cpus1.iq.fu_full::IntAlu        1082326     70.13%     70.13% # attempts to use FU when none available
system.switch_cpus1.iq.fu_full::IntMult            40      0.00%     70.13% # attempts to use FU when none available
system.switch_cpus1.iq.fu_full::IntDiv              0      0.00%     70.13% # attempts to use FU when none available
system.switch_cpus1.iq.fu_full::FloatAdd            0      0.00%     70.13% # attempts to use FU when none available
system.switch_cpus1.iq.fu_full::FloatCmp            0      0.00%     70.13% # attempts to use FU when none available
system.switch_cpus1.iq.fu_full::FloatCvt            0      0.00%     70.13% # attempts to use FU when none available
system.switch_cpus1.iq.fu_full::FloatMult            0      0.00%     70.13% # attempts to use FU when none available
system.switch_cpus1.iq.fu_full::FloatDiv            0      0.00%     70.13% # attempts to use FU when none available
system.switch_cpus1.iq.fu_full::FloatSqrt            0      0.00%     70.13% # attempts to use FU when none available
system.switch_cpus1.iq.fu_full::SimdAdd             0      0.00%     70.13% # attempts to use FU when none available
system.switch_cpus1.iq.fu_full::SimdAddAcc            0      0.00%     70.13% # attempts to use FU when none available
system.switch_cpus1.iq.fu_full::SimdAlu             0      0.00%     70.13% # attempts to use FU when none available
system.switch_cpus1.iq.fu_full::SimdCmp             0      0.00%     70.13% # attempts to use FU when none available
system.switch_cpus1.iq.fu_full::SimdCvt             0      0.00%     70.13% # attempts to use FU when none available
system.switch_cpus1.iq.fu_full::SimdMisc            0      0.00%     70.13% # attempts to use FU when none available
system.switch_cpus1.iq.fu_full::SimdMult            0      0.00%     70.13% # attempts to use FU when none available
system.switch_cpus1.iq.fu_full::SimdMultAcc            0      0.00%     70.13% # attempts to use FU when none available
system.switch_cpus1.iq.fu_full::SimdShift            0      0.00%     70.13% # attempts to use FU when none available
system.switch_cpus1.iq.fu_full::SimdShiftAcc            0      0.00%     70.13% # attempts to use FU when none available
system.switch_cpus1.iq.fu_full::SimdSqrt            0      0.00%     70.13% # attempts to use FU when none available
system.switch_cpus1.iq.fu_full::SimdFloatAdd            0      0.00%     70.13% # attempts to use FU when none available
system.switch_cpus1.iq.fu_full::SimdFloatAlu            0      0.00%     70.13% # attempts to use FU when none available
system.switch_cpus1.iq.fu_full::SimdFloatCmp            0      0.00%     70.13% # attempts to use FU when none available
system.switch_cpus1.iq.fu_full::SimdFloatCvt            0      0.00%     70.13% # attempts to use FU when none available
system.switch_cpus1.iq.fu_full::SimdFloatDiv            0      0.00%     70.13% # attempts to use FU when none available
system.switch_cpus1.iq.fu_full::SimdFloatMisc            0      0.00%     70.13% # attempts to use FU when none available
system.switch_cpus1.iq.fu_full::SimdFloatMult            0      0.00%     70.13% # attempts to use FU when none available
system.switch_cpus1.iq.fu_full::SimdFloatMultAcc            0      0.00%     70.13% # attempts to use FU when none available
system.switch_cpus1.iq.fu_full::SimdFloatSqrt            0      0.00%     70.13% # attempts to use FU when none available
system.switch_cpus1.iq.fu_full::MemRead        202178     13.10%     83.23% # attempts to use FU when none available
system.switch_cpus1.iq.fu_full::MemWrite       258735     16.77%    100.00% # attempts to use FU when none available
system.switch_cpus1.iq.fu_full::IprAccess            0      0.00%    100.00% # attempts to use FU when none available
system.switch_cpus1.iq.fu_full::InstPrefetch            0      0.00%    100.00% # attempts to use FU when none available
system.switch_cpus1.iq.FU_type_0::No_OpClass            0      0.00%      0.00% # Type of FU issued
system.switch_cpus1.iq.FU_type_0::IntAlu    121319622     82.28%     82.28% # Type of FU issued
system.switch_cpus1.iq.FU_type_0::IntMult      2013760      1.37%     83.64% # Type of FU issued
system.switch_cpus1.iq.FU_type_0::IntDiv            0      0.00%     83.64% # Type of FU issued
system.switch_cpus1.iq.FU_type_0::FloatAdd            0      0.00%     83.64% # Type of FU issued
system.switch_cpus1.iq.FU_type_0::FloatCmp            0      0.00%     83.64% # Type of FU issued
system.switch_cpus1.iq.FU_type_0::FloatCvt            0      0.00%     83.64% # Type of FU issued
system.switch_cpus1.iq.FU_type_0::FloatMult            0      0.00%     83.64% # Type of FU issued
system.switch_cpus1.iq.FU_type_0::FloatDiv            0      0.00%     83.64% # Type of FU issued
system.switch_cpus1.iq.FU_type_0::FloatSqrt            0      0.00%     83.64% # Type of FU issued
system.switch_cpus1.iq.FU_type_0::SimdAdd            0      0.00%     83.64% # Type of FU issued
system.switch_cpus1.iq.FU_type_0::SimdAddAcc            0      0.00%     83.64% # Type of FU issued
system.switch_cpus1.iq.FU_type_0::SimdAlu            0      0.00%     83.64% # Type of FU issued
system.switch_cpus1.iq.FU_type_0::SimdCmp            0      0.00%     83.64% # Type of FU issued
system.switch_cpus1.iq.FU_type_0::SimdCvt            0      0.00%     83.64% # Type of FU issued
system.switch_cpus1.iq.FU_type_0::SimdMisc            0      0.00%     83.64% # Type of FU issued
system.switch_cpus1.iq.FU_type_0::SimdMult            0      0.00%     83.64% # Type of FU issued
system.switch_cpus1.iq.FU_type_0::SimdMultAcc            0      0.00%     83.64% # Type of FU issued
system.switch_cpus1.iq.FU_type_0::SimdShift            0      0.00%     83.64% # Type of FU issued
system.switch_cpus1.iq.FU_type_0::SimdShiftAcc            0      0.00%     83.64% # Type of FU issued
system.switch_cpus1.iq.FU_type_0::SimdSqrt            0      0.00%     83.64% # Type of FU issued
system.switch_cpus1.iq.FU_type_0::SimdFloatAdd            0      0.00%     83.64% # Type of FU issued
system.switch_cpus1.iq.FU_type_0::SimdFloatAlu            0      0.00%     83.64% # Type of FU issued
system.switch_cpus1.iq.FU_type_0::SimdFloatCmp            0      0.00%     83.64% # Type of FU issued
system.switch_cpus1.iq.FU_type_0::SimdFloatCvt            0      0.00%     83.64% # Type of FU issued
system.switch_cpus1.iq.FU_type_0::SimdFloatDiv            0      0.00%     83.64% # Type of FU issued
system.switch_cpus1.iq.FU_type_0::SimdFloatMisc        15991      0.01%     83.65% # Type of FU issued
system.switch_cpus1.iq.FU_type_0::SimdFloatMult            0      0.00%     83.65% # Type of FU issued
system.switch_cpus1.iq.FU_type_0::SimdFloatMultAcc            0      0.00%     83.65% # Type of FU issued
system.switch_cpus1.iq.FU_type_0::SimdFloatSqrt            0      0.00%     83.65% # Type of FU issued
system.switch_cpus1.iq.FU_type_0::MemRead     15693091     10.64%     94.29% # Type of FU issued
system.switch_cpus1.iq.FU_type_0::MemWrite      8412373      5.71%    100.00% # Type of FU issued
system.switch_cpus1.iq.FU_type_0::IprAccess            0      0.00%    100.00% # Type of FU issued
system.switch_cpus1.iq.FU_type_0::InstPrefetch            0      0.00%    100.00% # Type of FU issued
system.switch_cpus1.iq.FU_type_0::total     147454837                       # Type of FU issued
system.switch_cpus1.iq.rate                  1.737688                       # Inst issue rate
system.switch_cpus1.iq.fu_busy_cnt            1543279                       # FU busy when requested
system.switch_cpus1.iq.fu_busy_rate          0.010466                       # FU busy rate (busy events/executed inst)
system.switch_cpus1.iq.int_inst_queue_reads    380448177                       # Number of integer instruction queue reads
system.switch_cpus1.iq.int_inst_queue_writes    244391343                       # Number of integer instruction queue writes
system.switch_cpus1.iq.int_inst_queue_wakeup_accesses    143314750                       # Number of integer instruction queue wakeup accesses
system.switch_cpus1.iq.fp_inst_queue_reads            0                       # Number of floating instruction queue reads
system.switch_cpus1.iq.fp_inst_queue_writes            0                       # Number of floating instruction queue writes
system.switch_cpus1.iq.fp_inst_queue_wakeup_accesses            0                       # Number of floating instruction queue wakeup accesses
system.switch_cpus1.iq.int_alu_accesses     148998116                       # Number of integer alu accesses
system.switch_cpus1.iq.fp_alu_accesses              0                       # Number of floating point alu accesses
system.switch_cpus1.iew.lsq.thread0.forwLoads       261131                       # Number of loads that had data forwarded from stores
system.switch_cpus1.iew.lsq.thread0.invAddrLoads            0                       # Number of loads ignored due to an invalid address
system.switch_cpus1.iew.lsq.thread0.squashedLoads      6997587                       # Number of loads squashed
system.switch_cpus1.iew.lsq.thread0.ignoredResponses          509                       # Number of memory responses ignored because the instruction is squashed
system.switch_cpus1.iew.lsq.thread0.memOrderViolation         1061                       # Number of memory ordering violations
system.switch_cpus1.iew.lsq.thread0.squashedStores      2277459                       # Number of stores squashed
system.switch_cpus1.iew.lsq.thread0.invAddrSwpfs            0                       # Number of software prefetches ignored due to an invalid address
system.switch_cpus1.iew.lsq.thread0.blockedLoads            0                       # Number of blocked loads due to partial load-store forwarding
system.switch_cpus1.iew.lsq.thread0.rescheduledLoads          563                       # Number of loads that were rescheduled
system.switch_cpus1.iew.lsq.thread0.cacheBlocked            0                       # Number of times an access to memory failed due to the cache being blocked
system.switch_cpus1.iew.iewIdleCycles               0                       # Number of cycles IEW is idle
system.switch_cpus1.iew.iewSquashCycles       8732932                       # Number of cycles IEW is squashing
system.switch_cpus1.iew.iewBlockCycles        1857858                       # Number of cycles IEW is blocking
system.switch_cpus1.iew.iewUnblockCycles       161300                       # Number of cycles IEW is unblocking
system.switch_cpus1.iew.iewDispatchedInsts    183513569                       # Number of instructions dispatched to IQ
system.switch_cpus1.iew.iewDispSquashedInsts       315127                       # Number of squashed instructions skipped by dispatch
system.switch_cpus1.iew.iewDispLoadInsts     19161820                       # Number of dispatched load instructions
system.switch_cpus1.iew.iewDispStoreInsts      9987291                       # Number of dispatched store instructions
system.switch_cpus1.iew.iewDispNonSpecInsts        17916                       # Number of dispatched non-speculative instructions
system.switch_cpus1.iew.iewIQFullEvents        117017                       # Number of times the IQ has become full, causing a stall
system.switch_cpus1.iew.iewLSQFullEvents         7556                       # Number of times the LSQ has become full, causing a stall
system.switch_cpus1.iew.memOrderViolationEvents         1061                       # Number of memory order violations
system.switch_cpus1.iew.predictedTakenIncorrect      1233897                       # Number of branches that were predicted taken incorrectly
system.switch_cpus1.iew.predictedNotTakenIncorrect      1124406                       # Number of branches that were predicted not taken incorrectly
system.switch_cpus1.iew.branchMispredicts      2358303                       # Number of branch mispredicts detected at execute
system.switch_cpus1.iew.iewExecutedInsts    144879305                       # Number of executed instructions
system.switch_cpus1.iew.iewExecLoadInsts     14746068                       # Number of load instructions executed
system.switch_cpus1.iew.iewExecSquashedInsts      2575530                       # Number of squashed instructions skipped in execute
system.switch_cpus1.iew.exec_swp                    0                       # number of swp insts executed
system.switch_cpus1.iew.exec_nop                    0                       # number of nop insts executed
system.switch_cpus1.iew.exec_refs            22914958                       # number of memory reference insts executed
system.switch_cpus1.iew.exec_branches        20539410                       # Number of branches executed
system.switch_cpus1.iew.exec_stores           8168890                       # Number of stores executed
system.switch_cpus1.iew.exec_rate            1.707336                       # Inst execution rate
system.switch_cpus1.iew.wb_sent             143462002                       # cumulative count of insts sent to commit
system.switch_cpus1.iew.wb_count            143314750                       # cumulative count of insts written-back
system.switch_cpus1.iew.wb_producers         93498973                       # num instructions producing a value
system.switch_cpus1.iew.wb_consumers        261192585                       # num instructions consuming a value
system.switch_cpus1.iew.wb_penalized                0                       # number of instrctions required to write to 'other' IQ
system.switch_cpus1.iew.wb_rate              1.688899                       # insts written-back per cycle
system.switch_cpus1.iew.wb_fanout            0.357969                       # average fanout of values written-back
system.switch_cpus1.iew.wb_penalized_rate            0                       # fraction of instructions written-back that wrote to 'other' IQ
system.switch_cpus1.commit.commitCommittedInsts     99741417                       # The number of committed instructions
system.switch_cpus1.commit.commitCommittedOps    122111008                       # The number of committed instructions
system.switch_cpus1.commit.commitSquashedInsts     61405678                       # The number of squashed insts skipped by commit
system.switch_cpus1.commit.commitNonSpecStalls        31980                       # The number of times commit has been forced to stall to communicate backwards
system.switch_cpus1.commit.branchMispredicts      2038073                       # The number of times a branch was mispredicted
system.switch_cpus1.commit.committed_per_cycle::samples     74980851                       # Number of insts commited each cycle
system.switch_cpus1.commit.committed_per_cycle::mean     1.628563                       # Number of insts commited each cycle
system.switch_cpus1.commit.committed_per_cycle::stdev     2.172680                       # Number of insts commited each cycle
system.switch_cpus1.commit.committed_per_cycle::underflows            0      0.00%      0.00% # Number of insts commited each cycle
system.switch_cpus1.commit.committed_per_cycle::0     29779332     39.72%     39.72% # Number of insts commited each cycle
system.switch_cpus1.commit.committed_per_cycle::1     20406124     27.22%     66.93% # Number of insts commited each cycle
system.switch_cpus1.commit.committed_per_cycle::2      8360150     11.15%     78.08% # Number of insts commited each cycle
system.switch_cpus1.commit.committed_per_cycle::3      4285772      5.72%     83.80% # Number of insts commited each cycle
system.switch_cpus1.commit.committed_per_cycle::4      3673505      4.90%     88.70% # Number of insts commited each cycle
system.switch_cpus1.commit.committed_per_cycle::5      1801491      2.40%     91.10% # Number of insts commited each cycle
system.switch_cpus1.commit.committed_per_cycle::6      1983547      2.65%     93.74% # Number of insts commited each cycle
system.switch_cpus1.commit.committed_per_cycle::7      1002929      1.34%     95.08% # Number of insts commited each cycle
system.switch_cpus1.commit.committed_per_cycle::8      3688001      4.92%    100.00% # Number of insts commited each cycle
system.switch_cpus1.commit.committed_per_cycle::overflows            0      0.00%    100.00% # Number of insts commited each cycle
system.switch_cpus1.commit.committed_per_cycle::min_value            0                       # Number of insts commited each cycle
system.switch_cpus1.commit.committed_per_cycle::max_value            8                       # Number of insts commited each cycle
system.switch_cpus1.commit.committed_per_cycle::total     74980851                       # Number of insts commited each cycle
system.switch_cpus1.commit.committedInsts     99741417                       # Number of instructions committed
system.switch_cpus1.commit.committedOps     122111008                       # Number of ops (including micro ops) committed
[...]
system.cpu2.icache.ReadReq_miss_latency::switch_cpus2.inst       941910                       # number of ReadReq miss cycles
system.cpu2.icache.ReadReq_miss_latency::total       941910                       # number of ReadReq miss cycles
system.cpu2.icache.demand_miss_latency::switch_cpus2.inst       941910                       # number of demand (read+write) miss cycles
system.cpu2.icache.demand_miss_latency::total       941910                       # number of demand (read+write) miss cycles
system.cpu2.icache.overall_miss_latency::switch_cpus2.inst       941910                       # number of overall miss cycles
system.cpu2.icache.overall_miss_latency::total       941910                       # number of overall miss cycles
system.cpu2.icache.ReadReq_accesses::switch_cpus2.inst     16127238                       # number of ReadReq accesses(hits+misses)
system.cpu2.icache.ReadReq_accesses::total     16127238                       # number of ReadReq accesses(hits+misses)
system.cpu2.icache.demand_accesses::switch_cpus2.inst     16127238                       # number of demand (read+write) accesses
system.cpu2.icache.demand_accesses::total     16127238                       # number of demand (read+write) accesses
system.cpu2.icache.overall_accesses::switch_cpus2.inst     16127238                       # number of overall (read+write) accesses
system.cpu2.icache.overall_accesses::total     16127238                       # number of overall (read+write) accesses
system.cpu2.icache.ReadReq_miss_rate::switch_cpus2.inst     0.000001                       # miss rate for ReadReq accesses
system.cpu2.icache.ReadReq_miss_rate::total     0.000001                       # miss rate for ReadReq accesses
system.cpu2.icache.demand_miss_rate::switch_cpus2.inst     0.000001                       # miss rate for demand accesses
system.cpu2.icache.demand_miss_rate::total     0.000001                       # miss rate for demand accesses
system.cpu2.icache.overall_miss_rate::switch_cpus2.inst     0.000001                       # miss rate for overall accesses
system.cpu2.icache.overall_miss_rate::total     0.000001                       # miss rate for overall accesses
system.cpu2.icache.ReadReq_avg_miss_latency::switch_cpus2.inst 49574.210526                       # average ReadReq miss latency
system.cpu2.icache.ReadReq_avg_miss_latency::total 49574.210526                       # average ReadReq miss latency
system.cpu2.icache.demand_avg_miss_latency::switch_cpus2.inst 49574.210526                       # average overall miss latency
system.cpu2.icache.demand_avg_miss_latency::total 49574.210526                       # average overall miss latency
system.cpu2.icache.overall_avg_miss_latency::switch_cpus2.inst 49574.210526                       # average overall miss latency
system.cpu2.icache.overall_avg_miss_latency::total 49574.210526                       # average overall miss latency
system.cpu2.icache.blocked_cycles::no_mshrs            0                       # number of cycles access was blocked
system.cpu2.icache.blocked_cycles::no_targets            0                       # number of cycles access was blocked
system.cpu2.icache.blocked::no_mshrs                0                       # number of cycles access was blocked
system.cpu2.icache.blocked::no_targets              0                       # number of cycles access was blocked
system.cpu2.icache.avg_blocked_cycles::no_mshrs          nan                       # average number of cycles each access was blocked
system.cpu2.icache.avg_blocked_cycles::no_targets          nan                       # average number of cycles each access was blocked
system.cpu2.icache.fast_writes                      0                       # number of fast writes performed
system.cpu2.icache.cache_copies                     0                       # number of cache copies performed
system.cpu2.icache.ReadReq_mshr_hits::switch_cpus2.inst            3                       # number of ReadReq MSHR hits
system.cpu2.icache.ReadReq_mshr_hits::total            3                       # number of ReadReq MSHR hits
system.cpu2.icache.demand_mshr_hits::switch_cpus2.inst            3                       # number of demand (read+write) MSHR hits
system.cpu2.icache.demand_mshr_hits::total            3                       # number of demand (read+write) MSHR hits
system.cpu2.icache.overall_mshr_hits::switch_cpus2.inst            3                       # number of overall MSHR hits
system.cpu2.icache.overall_mshr_hits::total            3                       # number of overall MSHR hits
system.cpu2.icache.ReadReq_mshr_misses::switch_cpus2.inst           16                       # number of ReadReq MSHR misses
system.cpu2.icache.ReadReq_mshr_misses::total           16                       # number of ReadReq MSHR misses
system.cpu2.icache.demand_mshr_misses::switch_cpus2.inst           16                       # number of demand (read+write) MSHR misses
system.cpu2.icache.demand_mshr_misses::total           16                       # number of demand (read+write) MSHR misses
system.cpu2.icache.overall_mshr_misses::switch_cpus2.inst           16                       # number of overall MSHR misses
system.cpu2.icache.overall_mshr_misses::total           16                       # number of overall MSHR misses
system.cpu2.icache.ReadReq_mshr_miss_latency::switch_cpus2.inst       764604                       # number of ReadReq MSHR miss cycles
system.cpu2.icache.ReadReq_mshr_miss_latency::total       764604                       # number of ReadReq MSHR miss cycles
system.cpu2.icache.demand_mshr_miss_latency::switch_cpus2.inst       764604                       # number of demand (read+write) MSHR miss cycles
system.cpu2.icache.demand_mshr_miss_latency::total       764604                       # number of demand (read+write) MSHR miss cycles
system.cpu2.icache.overall_mshr_miss_latency::switch_cpus2.inst       764604                       # number of overall MSHR miss cycles
system.cpu2.icache.overall_mshr_miss_latency::total       764604                       # number of overall MSHR miss cycles
system.cpu2.icache.ReadReq_mshr_miss_rate::switch_cpus2.inst     0.000001                       # mshr miss rate for ReadReq accesses
system.cpu2.icache.ReadReq_mshr_miss_rate::total     0.000001                       # mshr miss rate for ReadReq accesses
system.cpu2.icache.demand_mshr_miss_rate::switch_cpus2.inst     0.000001                       # mshr miss rate for demand accesses
system.cpu2.icache.demand_mshr_miss_rate::total     0.000001                       # mshr miss rate for demand accesses
system.cpu2.icache.overall_mshr_miss_rate::switch_cpus2.inst     0.000001                       # mshr miss rate for overall accesses
system.cpu2.icache.overall_mshr_miss_rate::total     0.000001                       # mshr miss rate for overall accesses
system.cpu2.icache.ReadReq_avg_mshr_miss_latency::switch_cpus2.inst 47787.750000                       # average ReadReq mshr miss latency
system.cpu2.icache.ReadReq_avg_mshr_miss_latency::total 47787.750000                       # average ReadReq mshr miss latency
system.cpu2.icache.demand_avg_mshr_miss_latency::switch_cpus2.inst 47787.750000                       # average overall mshr miss latency
system.cpu2.icache.demand_avg_mshr_miss_latency::total 47787.750000                       # average overall mshr miss latency
system.cpu2.icache.overall_avg_mshr_miss_latency::switch_cpus2.inst 47787.750000                       # average overall mshr miss latency
system.cpu2.icache.overall_avg_mshr_miss_latency::total 47787.750000                       # average overall mshr miss latency
system.cpu2.icache.no_allocate_misses               0                       # Number of misses that were no-allocate
system.cpu2.dcache.replacements                 33523                       # number of replacements
system.cpu2.dcache.tagsinuse                      256                       # Cycle average of tags in use
system.cpu2.dcache.total_refs               164371729                       # Total number of references to valid blocks.
system.cpu2.dcache.sampled_refs                 33779                       # Sample count of references to valid blocks.
system.cpu2.dcache.avg_refs               4866.092217                       # Average number of references to valid blocks.
system.cpu2.dcache.warmup_cycle                     0                       # Cycle when the warmup percentage was hit.
system.cpu2.dcache.occ_blocks::switch_cpus2.data   230.638617                       # Average occupied blocks per requestor
system.cpu2.dcache.occ_blocks::cpu2.data    25.361383                       # Average occupied blocks per requestor
system.cpu2.dcache.occ_percent::switch_cpus2.data     0.900932                       # Average percentage of cache occupancy
system.cpu2.dcache.occ_percent::cpu2.data     0.099068                       # Average percentage of cache occupancy
system.cpu2.dcache.occ_percent::total               1                       # Average percentage of cache occupancy
system.cpu2.dcache.ReadReq_hits::switch_cpus2.data     10512072                       # number of ReadReq hits
system.cpu2.dcache.ReadReq_hits::total       10512072                       # number of ReadReq hits
system.cpu2.dcache.WriteReq_hits::switch_cpus2.data      7173723                       # number of WriteReq hits
system.cpu2.dcache.WriteReq_hits::total       7173723                       # number of WriteReq hits
system.cpu2.dcache.LoadLockedReq_hits::switch_cpus2.data        17362                       # number of LoadLockedReq hits
system.cpu2.dcache.LoadLockedReq_hits::total        17362                       # number of LoadLockedReq hits
system.cpu2.dcache.StoreCondReq_hits::switch_cpus2.data        17330                       # number of StoreCondReq hits
system.cpu2.dcache.StoreCondReq_hits::total        17330                       # number of StoreCondReq hits
system.cpu2.dcache.demand_hits::switch_cpus2.data     17685795                       # number of demand (read+write) hits
system.cpu2.dcache.demand_hits::total        17685795                       # number of demand (read+write) hits
system.cpu2.dcache.overall_hits::switch_cpus2.data     17685795                       # number of overall hits
system.cpu2.dcache.overall_hits::total       17685795                       # number of overall hits
system.cpu2.dcache.ReadReq_misses::switch_cpus2.data        68680                       # number of ReadReq misses
system.cpu2.dcache.ReadReq_misses::total        68680                       # number of ReadReq misses
system.cpu2.dcache.demand_misses::switch_cpus2.data        68680                       # number of demand (read+write) misses
system.cpu2.dcache.demand_misses::total         68680                       # number of demand (read+write) misses
system.cpu2.dcache.overall_misses::switch_cpus2.data        68680                       # number of overall misses
system.cpu2.dcache.overall_misses::total        68680                       # number of overall misses
system.cpu2.dcache.ReadReq_miss_latency::switch_cpus2.data   1864416297                       # number of ReadReq miss cycles
system.cpu2.dcache.ReadReq_miss_latency::total   1864416297                       # number of ReadReq miss cycles
system.cpu2.dcache.demand_miss_latency::switch_cpus2.data   1864416297                       # number of demand (read+write) miss cycles
system.cpu2.dcache.demand_miss_latency::total   1864416297                       # number of demand (read+write) miss cycles
system.cpu2.dcache.overall_miss_latency::switch_cpus2.data   1864416297                       # number of overall miss cycles
system.cpu2.dcache.overall_miss_latency::total   1864416297                       # number of overall miss cycles
system.cpu2.dcache.ReadReq_accesses::switch_cpus2.data     10580752                       # number of ReadReq accesses(hits+misses)
system.cpu2.dcache.ReadReq_accesses::total     10580752                       # number of ReadReq accesses(hits+misses)
system.cpu2.dcache.WriteReq_accesses::switch_cpus2.data      7173723                       # number of WriteReq accesses(hits+misses)
system.cpu2.dcache.WriteReq_accesses::total      7173723                       # number of WriteReq accesses(hits+misses)
system.cpu2.dcache.LoadLockedReq_accesses::switch_cpus2.data        17362                       # number of LoadLockedReq accesses(hits+misses)
system.cpu2.dcache.LoadLockedReq_accesses::total        17362                       # number of LoadLockedReq accesses(hits+misses)
system.cpu2.dcache.StoreCondReq_accesses::switch_cpus2.data        17330                       # number of StoreCondReq accesses(hits+misses)
system.cpu2.dcache.StoreCondReq_accesses::total        17330                       # number of StoreCondReq accesses(hits+misses)
system.cpu2.dcache.demand_accesses::switch_cpus2.data     17754475                       # number of demand (read+write) accesses
system.cpu2.dcache.demand_accesses::total     17754475                       # number of demand (read+write) accesses
system.cpu2.dcache.overall_accesses::switch_cpus2.data     17754475                       # number of overall (read+write) accesses
system.cpu2.dcache.overall_accesses::total     17754475                       # number of overall (read+write) accesses
system.cpu2.dcache.ReadReq_miss_rate::switch_cpus2.data     0.006491                       # miss rate for ReadReq accesses
system.cpu2.dcache.ReadReq_miss_rate::total     0.006491                       # miss rate for ReadReq accesses
system.cpu2.dcache.demand_miss_rate::switch_cpus2.data     0.003868                       # miss rate for demand accesses
system.cpu2.dcache.demand_miss_rate::total     0.003868                       # miss rate for demand accesses
system.cpu2.dcache.overall_miss_rate::switch_cpus2.data     0.003868                       # miss rate for overall accesses
system.cpu2.dcache.overall_miss_rate::total     0.003868                       # miss rate for overall accesses
system.cpu2.dcache.ReadReq_avg_miss_latency::switch_cpus2.data 27146.422496                       # average ReadReq miss latency
system.cpu2.dcache.ReadReq_avg_miss_latency::total 27146.422496                       # average ReadReq miss latency
system.cpu2.dcache.demand_avg_miss_latency::switch_cpus2.data 27146.422496                       # average overall miss latency
system.cpu2.dcache.demand_avg_miss_latency::total 27146.422496                       # average overall miss latency
system.cpu2.dcache.overall_avg_miss_latency::switch_cpus2.data 27146.422496                       # average overall miss latency
system.cpu2.dcache.overall_avg_miss_latency::total 27146.422496                       # average overall miss latency
system.cpu2.dcache.blocked_cycles::no_mshrs            0                       # number of cycles access was blocked
system.cpu2.dcache.blocked_cycles::no_targets            0                       # number of cycles access was blocked
system.cpu2.dcache.blocked::no_mshrs                0                       # number of cycles access was blocked
system.cpu2.dcache.blocked::no_targets              0                       # number of cycles access was blocked
system.cpu2.dcache.avg_blocked_cycles::no_mshrs          nan                       # average number of cycles each access was blocked
system.cpu2.dcache.avg_blocked_cycles::no_targets          nan                       # average number of cycles each access was blocked
system.cpu2.dcache.fast_writes                      0                       # number of fast writes performed
system.cpu2.dcache.cache_copies                     0                       # number of cache copies performed
system.cpu2.dcache.writebacks::writebacks         9745                       # number of writebacks
system.cpu2.dcache.writebacks::total             9745                       # number of writebacks
system.cpu2.dcache.ReadReq_mshr_hits::switch_cpus2.data        35157                       # number of ReadReq MSHR hits
system.cpu2.dcache.ReadReq_mshr_hits::total        35157                       # number of ReadReq MSHR hits
system.cpu2.dcache.demand_mshr_hits::switch_cpus2.data        35157                       # number of demand (read+write) MSHR hits
system.cpu2.dcache.demand_mshr_hits::total        35157                       # number of demand (read+write) MSHR hits
system.cpu2.dcache.overall_mshr_hits::switch_cpus2.data        35157                       # number of overall MSHR hits
system.cpu2.dcache.overall_mshr_hits::total        35157                       # number of overall MSHR hits
system.cpu2.dcache.ReadReq_mshr_misses::switch_cpus2.data        33523                       # number of ReadReq MSHR misses
system.cpu2.dcache.ReadReq_mshr_misses::total        33523                       # number of ReadReq MSHR misses
system.cpu2.dcache.demand_mshr_misses::switch_cpus2.data        33523                       # number of demand (read+write) MSHR misses
system.cpu2.dcache.demand_mshr_misses::total        33523                       # number of demand (read+write) MSHR misses
system.cpu2.dcache.overall_mshr_misses::switch_cpus2.data        33523                       # number of overall MSHR misses
system.cpu2.dcache.overall_mshr_misses::total        33523                       # number of overall MSHR misses
system.cpu2.dcache.ReadReq_mshr_miss_latency::switch_cpus2.data    533366236                       # number of ReadReq MSHR miss cycles
system.cpu2.dcache.ReadReq_mshr_miss_latency::total    533366236                       # number of ReadReq MSHR miss cycles
system.cpu2.dcache.demand_mshr_miss_latency::switch_cpus2.data    533366236                       # number of demand (read+write) MSHR miss cycles
system.cpu2.dcache.demand_mshr_miss_latency::total    533366236                       # number of demand (read+write) MSHR miss cycles
system.cpu2.dcache.overall_mshr_miss_latency::switch_cpus2.data    533366236                       # number of overall MSHR miss cycles
system.cpu2.dcache.overall_mshr_miss_latency::total    533366236                       # number of overall MSHR miss cycles
system.cpu2.dcache.ReadReq_mshr_miss_rate::switch_cpus2.data     0.003168                       # mshr miss rate for ReadReq accesses
system.cpu2.dcache.ReadReq_mshr_miss_rate::total     0.003168                       # mshr miss rate for ReadReq accesses
system.cpu2.dcache.demand_mshr_miss_rate::switch_cpus2.data     0.001888                       # mshr miss rate for demand accesses
system.cpu2.dcache.demand_mshr_miss_rate::total     0.001888                       # mshr miss rate for demand accesses
system.cpu2.dcache.overall_mshr_miss_rate::switch_cpus2.data     0.001888                       # mshr miss rate for overall accesses
system.cpu2.dcache.overall_mshr_miss_rate::total     0.001888                       # mshr miss rate for overall accesses
system.cpu2.dcache.ReadReq_avg_mshr_miss_latency::switch_cpus2.data 15910.456582                       # average ReadReq mshr miss latency
system.cpu2.dcache.ReadReq_avg_mshr_miss_latency::total 15910.456582                       # average ReadReq mshr miss latency
system.cpu2.dcache.demand_avg_mshr_miss_latency::switch_cpus2.data 15910.456582                       # average overall mshr miss latency
system.cpu2.dcache.demand_avg_mshr_miss_latency::total 15910.456582                       # average overall mshr miss latency
system.cpu2.dcache.overall_avg_mshr_miss_latency::switch_cpus2.data 15910.456582                       # average overall mshr miss latency
system.cpu2.dcache.overall_avg_mshr_miss_latency::total 15910.456582                       # average overall mshr miss latency
system.cpu2.dcache.no_allocate_misses               0                       # Number of misses that were no-allocate

---------- End Simulation Statistics   ----------
