
---------- Begin Simulation Statistics ----------
sim_seconds                                  0.003297                       # Number of seconds simulated
sim_ticks                                  3297214830                       # Number of ticks simulated
final_tick                               574800137949                       # Number of ticks from beginning of simulation (restored from checkpoints and never reset)
sim_freq                                 1000000000000                       # Frequency of simulated ticks
host_inst_rate                                 298488                       # Simulator instruction rate (inst/s)
host_op_rate                                   383939                       # Simulator op (including micro ops) rate (op/s)
host_tick_rate                                 229018                       # Simulator tick rate (ticks/s)
host_mem_usage                               16924116                       # Number of bytes of host memory used
host_seconds                                 14397.22                       # Real time elapsed on the host
sim_insts                                  4297398754                       # Number of instructions simulated
sim_ops                                    5527653366                       # Number of ops (including micro ops) simulated
system.physmem.bytes_read::switch_cpus0.inst         1920                       # Number of bytes read from this memory
system.physmem.bytes_read::switch_cpus0.data       178944                       # Number of bytes read from this memory
system.physmem.bytes_read::switch_cpus1.inst         1664                       # Number of bytes read from this memory
system.physmem.bytes_read::switch_cpus1.data       209024                       # Number of bytes read from this memory
system.physmem.bytes_read::switch_cpus2.inst         1792                       # Number of bytes read from this memory
system.physmem.bytes_read::switch_cpus2.data        72704                       # Number of bytes read from this memory
system.physmem.bytes_read::switch_cpus3.inst         2048                       # Number of bytes read from this memory
system.physmem.bytes_read::switch_cpus3.data        66816                       # Number of bytes read from this memory
system.physmem.bytes_read::total               534912                       # Number of bytes read from this memory
system.physmem.bytes_inst_read::switch_cpus0.inst         1920                       # Number of instructions bytes read from this memory
system.physmem.bytes_inst_read::switch_cpus1.inst         1664                       # Number of instructions bytes read from this memory
system.physmem.bytes_inst_read::switch_cpus2.inst         1792                       # Number of instructions bytes read from this memory
system.physmem.bytes_inst_read::switch_cpus3.inst         2048                       # Number of instructions bytes read from this memory
system.physmem.bytes_inst_read::total            7424                       # Number of instructions bytes read from this memory
system.physmem.bytes_written::writebacks       172672                       # Number of bytes written to this memory
system.physmem.bytes_written::total            172672                       # Number of bytes written to this memory
system.physmem.num_reads::switch_cpus0.inst           15                       # Number of read requests responded to by this memory
system.physmem.num_reads::switch_cpus0.data         1398                       # Number of read requests responded to by this memory
system.physmem.num_reads::switch_cpus1.inst           13                       # Number of read requests responded to by this memory
system.physmem.num_reads::switch_cpus1.data         1633                       # Number of read requests responded to by this memory
system.physmem.num_reads::switch_cpus2.inst           14                       # Number of read requests responded to by this memory
system.physmem.num_reads::switch_cpus2.data          568                       # Number of read requests responded to by this memory
system.physmem.num_reads::switch_cpus3.inst           16                       # Number of read requests responded to by this memory
system.physmem.num_reads::switch_cpus3.data          522                       # Number of read requests responded to by this memory
system.physmem.num_reads::total                  4179                       # Number of read requests responded to by this memory
system.physmem.num_writes::writebacks            1349                       # Number of write requests responded to by this memory
system.physmem.num_writes::functional               0                       # Number of write requests responded to by this memory
system.physmem.num_writes::interrupt                0                       # Number of write requests responded to by this memory
system.physmem.num_writes::switch_cpus0.dtb.walker            0                       # Number of write requests responded to by this memory
system.physmem.num_writes::switch_cpus0.itb.walker            0                       # Number of write requests responded to by this memory
system.physmem.num_writes::switch_cpus0.inst            0                       # Number of write requests responded to by this memory
system.physmem.num_writes::switch_cpus0.data            0                       # Number of write requests responded to by this memory
system.physmem.num_writes::switch_cpus1.dtb.walker            0                       # Number of write requests responded to by this memory
system.physmem.num_writes::switch_cpus1.itb.walker            0                       # Number of write requests responded to by this memory
system.physmem.num_writes::switch_cpus1.inst            0                       # Number of write requests responded to by this memory
system.physmem.num_writes::switch_cpus1.data            0                       # Number of write requests responded to by this memory
system.physmem.num_writes::switch_cpus2.dtb.walker            0                       # Number of write requests responded to by this memory
system.physmem.num_writes::switch_cpus2.itb.walker            0                       # Number of write requests responded to by this memory
system.physmem.num_writes::switch_cpus2.inst            0                       # Number of write requests responded to by this memory
system.physmem.num_writes::switch_cpus2.data            0                       # Number of write requests responded to by this memory
system.physmem.num_writes::switch_cpus3.dtb.walker            0                       # Number of write requests responded to by this memory
system.physmem.num_writes::switch_cpus3.itb.walker            0                       # Number of write requests responded to by this memory
system.physmem.num_writes::switch_cpus3.inst            0                       # Number of write requests responded to by this memory
system.physmem.num_writes::switch_cpus3.data            0                       # Number of write requests responded to by this memory
system.physmem.num_writes::cpu0.dtb.walker            0                       # Number of write requests responded to by this memory
system.physmem.num_writes::cpu0.itb.walker            0                       # Number of write requests responded to by this memory
system.physmem.num_writes::cpu0.inst                0                       # Number of write requests responded to by this memory
system.physmem.num_writes::cpu0.data                0                       # Number of write requests responded to by this memory
system.physmem.num_writes::cpu1.dtb.walker            0                       # Number of write requests responded to by this memory
system.physmem.num_writes::cpu1.itb.walker            0                       # Number of write requests responded to by this memory
system.physmem.num_writes::cpu1.inst                0                       # Number of write requests responded to by this memory
system.physmem.num_writes::cpu1.data                0                       # Number of write requests responded to by this memory
system.physmem.num_writes::cpu2.dtb.walker            0                       # Number of write requests responded to by this memory
system.physmem.num_writes::cpu2.itb.walker            0                       # Number of write requests responded to by this memory
system.physmem.num_writes::cpu2.inst                0                       # Number of write requests responded to by this memory
system.physmem.num_writes::cpu2.data                0                       # Number of write requests responded to by this memory
system.physmem.num_writes::cpu3.dtb.walker            0                       # Number of write requests responded to by this memory
system.physmem.num_writes::cpu3.itb.walker            0                       # Number of write requests responded to by this memory
system.physmem.num_writes::cpu3.inst                0                       # Number of write requests responded to by this memory
system.physmem.num_writes::cpu3.data                0                       # Number of write requests responded to by this memory
system.physmem.num_writes::total                 1349                       # Number of write requests responded to by this memory
system.physmem.bw_read::switch_cpus0.inst       582310                       # Total read bandwidth from this memory (bytes/s)
system.physmem.bw_read::switch_cpus0.data     54271259                       # Total read bandwidth from this memory (bytes/s)
system.physmem.bw_read::switch_cpus1.inst       504668                       # Total read bandwidth from this memory (bytes/s)
system.physmem.bw_read::switch_cpus1.data     63394110                       # Total read bandwidth from this memory (bytes/s)
system.physmem.bw_read::switch_cpus2.inst       543489                       # Total read bandwidth from this memory (bytes/s)
system.physmem.bw_read::switch_cpus2.data     22050125                       # Total read bandwidth from this memory (bytes/s)
system.physmem.bw_read::switch_cpus3.inst       621130                       # Total read bandwidth from this memory (bytes/s)
system.physmem.bw_read::switch_cpus3.data     20264376                       # Total read bandwidth from this memory (bytes/s)
system.physmem.bw_read::total               162231467                       # Total read bandwidth from this memory (bytes/s)
system.physmem.bw_inst_read::switch_cpus0.inst       582310                       # Instruction read bandwidth from this memory (bytes/s)
system.physmem.bw_inst_read::switch_cpus1.inst       504668                       # Instruction read bandwidth from this memory (bytes/s)
system.physmem.bw_inst_read::switch_cpus2.inst       543489                       # Instruction read bandwidth from this memory (bytes/s)
system.physmem.bw_inst_read::switch_cpus3.inst       621130                       # Instruction read bandwidth from this memory (bytes/s)
system.physmem.bw_inst_read::total            2251597                       # Instruction read bandwidth from this memory (bytes/s)
system.physmem.bw_write::writebacks          52369047                       # Write bandwidth from this memory (bytes/s)
system.physmem.bw_write::total               52369047                       # Write bandwidth from this memory (bytes/s)
system.physmem.bw_total::writebacks          52369047                       # Total bandwidth to/from this memory (bytes/s)
system.physmem.bw_total::switch_cpus0.inst       582310                       # Total bandwidth to/from this memory (bytes/s)
system.physmem.bw_total::switch_cpus0.data     54271259                       # Total bandwidth to/from this memory (bytes/s)
system.physmem.bw_total::switch_cpus1.inst       504668                       # Total bandwidth to/from this memory (bytes/s)
system.physmem.bw_total::switch_cpus1.data     63394110                       # Total bandwidth to/from this memory (bytes/s)
system.physmem.bw_total::switch_cpus2.inst       543489                       # Total bandwidth to/from this memory (bytes/s)
system.physmem.bw_total::switch_cpus2.data     22050125                       # Total bandwidth to/from this memory (bytes/s)
system.physmem.bw_total::switch_cpus3.inst       621130                       # Total bandwidth to/from this memory (bytes/s)
system.physmem.bw_total::switch_cpus3.data     20264376                       # Total bandwidth to/from this memory (bytes/s)
system.physmem.bw_total::total              214600515                       # Total bandwidth to/from this memory (bytes/s)
system.switch_cpus0.dtb.inst_hits                   0                       # ITB inst hits
system.switch_cpus0.dtb.inst_misses                 0                       # ITB inst misses
system.switch_cpus0.dtb.read_hits                   0                       # DTB read hits
system.switch_cpus0.dtb.read_misses                 0                       # DTB read misses
system.switch_cpus0.dtb.write_hits                  0                       # DTB write hits
system.switch_cpus0.dtb.write_misses                0                       # DTB write misses
system.switch_cpus0.dtb.flush_tlb                   0                       # Number of times complete TLB was flushed
system.switch_cpus0.dtb.flush_tlb_mva               0                       # Number of times TLB was flushed by MVA
system.switch_cpus0.dtb.flush_tlb_mva_asid            0                       # Number of times TLB was flushed by MVA & ASID
system.switch_cpus0.dtb.flush_tlb_asid              0                       # Number of times TLB was flushed by ASID
system.switch_cpus0.dtb.flush_entries               0                       # Number of entries that have been flushed from TLB
system.switch_cpus0.dtb.align_faults                0                       # Number of TLB faults due to alignment restrictions
system.switch_cpus0.dtb.prefetch_faults             0                       # Number of TLB faults due to prefetch
system.switch_cpus0.dtb.domain_faults               0                       # Number of TLB faults due to domain restrictions
system.switch_cpus0.dtb.perms_faults                0                       # Number of TLB faults due to permissions restrictions
system.switch_cpus0.dtb.read_accesses               0                       # DTB read accesses
system.switch_cpus0.dtb.write_accesses              0                       # DTB write accesses
system.switch_cpus0.dtb.inst_accesses               0                       # ITB inst accesses
system.switch_cpus0.dtb.hits                        0                       # DTB hits
system.switch_cpus0.dtb.misses                      0                       # DTB misses
system.switch_cpus0.dtb.accesses                    0                       # DTB accesses
system.switch_cpus0.itb.inst_hits                   0                       # ITB inst hits
system.switch_cpus0.itb.inst_misses                 0                       # ITB inst misses
system.switch_cpus0.itb.read_hits                   0                       # DTB read hits
system.switch_cpus0.itb.read_misses                 0                       # DTB read misses
system.switch_cpus0.itb.write_hits                  0                       # DTB write hits
system.switch_cpus0.itb.write_misses                0                       # DTB write misses
system.switch_cpus0.itb.flush_tlb                   0                       # Number of times complete TLB was flushed
system.switch_cpus0.itb.flush_tlb_mva               0                       # Number of times TLB was flushed by MVA
system.switch_cpus0.itb.flush_tlb_mva_asid            0                       # Number of times TLB was flushed by MVA & ASID
system.switch_cpus0.itb.flush_tlb_asid              0                       # Number of times TLB was flushed by ASID
system.switch_cpus0.itb.flush_entries               0                       # Number of entries that have been flushed from TLB
system.switch_cpus0.itb.align_faults                0                       # Number of TLB faults due to alignment restrictions
system.switch_cpus0.itb.prefetch_faults             0                       # Number of TLB faults due to prefetch
system.switch_cpus0.itb.domain_faults               0                       # Number of TLB faults due to domain restrictions
system.switch_cpus0.itb.perms_faults                0                       # Number of TLB faults due to permissions restrictions
system.switch_cpus0.itb.read_accesses               0                       # DTB read accesses
system.switch_cpus0.itb.write_accesses              0                       # DTB write accesses
system.switch_cpus0.itb.inst_accesses               0                       # ITB inst accesses
system.switch_cpus0.itb.hits                        0                       # DTB hits
system.switch_cpus0.itb.misses                      0                       # DTB misses
system.switch_cpus0.itb.accesses                    0                       # DTB accesses
system.cpu0.workload.num_syscalls                   0                       # Number of system calls
system.switch_cpus0.numCycles                 7906991                       # number of cpu cycles simulated
system.switch_cpus0.numWorkItemsStarted             0                       # number of work items this cpu started
system.switch_cpus0.numWorkItemsCompleted            0                       # number of work items this cpu completed
system.switch_cpus0.BPredUnit.lookups         2872209                       # Number of BP lookups
system.switch_cpus0.BPredUnit.condPredicted      2508945                       # Number of conditional branches predicted
system.switch_cpus0.BPredUnit.condIncorrect       185413                       # Number of conditional branches incorrect
system.switch_cpus0.BPredUnit.BTBLookups      1422731                       # Number of BTB lookups
system.switch_cpus0.BPredUnit.BTBHits         1375103                       # Number of BTB hits
system.switch_cpus0.BPredUnit.BTBCorrect            0                       # Number of correct BTB predictions (this stat may not work properly.
system.switch_cpus0.BPredUnit.usedRAS          207135                       # Number of times the RAS was used to get a target.
system.switch_cpus0.BPredUnit.RASInCorrect         5860                       # Number of incorrect RAS predictions.
system.switch_cpus0.fetch.icacheStallCycles      3383341                       # Number of cycles fetch is stalled on an Icache miss
system.switch_cpus0.fetch.Insts              15974263                       # Number of instructions fetch has processed
system.switch_cpus0.fetch.Branches            2872209                       # Number of branches that fetch encountered
system.switch_cpus0.fetch.predictedBranches      1582238                       # Number of branches that fetch has predicted taken
system.switch_cpus0.fetch.Cycles              3290513                       # Number of cycles fetch has run and was not squashing or blocked
system.switch_cpus0.fetch.SquashCycles         908725                       # Number of cycles fetch has spent squashing
system.switch_cpus0.fetch.BlockedCycles        384331                       # Number of cycles fetch has spent blocked
system.switch_cpus0.fetch.PendingTrapStallCycles           18                       # Number of stall cycles due to pending traps
system.switch_cpus0.fetch.CacheLines          1667972                       # Number of cache lines fetched
system.switch_cpus0.fetch.IcacheSquashes        74211                       # Number of outstanding Icache misses that were squashed
system.switch_cpus0.fetch.rateDist::samples      7780475                       # Number of instructions fetched each cycle (Total)
system.switch_cpus0.fetch.rateDist::mean     2.365351                       # Number of instructions fetched each cycle (Total)
system.switch_cpus0.fetch.rateDist::stdev     3.172937                       # Number of instructions fetched each cycle (Total)
system.switch_cpus0.fetch.rateDist::underflows            0      0.00%      0.00% # Number of instructions fetched each cycle (Total)
system.switch_cpus0.fetch.rateDist::0         4489962     57.71%     57.71% # Number of instructions fetched each cycle (Total)
system.switch_cpus0.fetch.rateDist::1          163903      2.11%     59.81% # Number of instructions fetched each cycle (Total)
system.switch_cpus0.fetch.rateDist::2          300580      3.86%     63.68% # Number of instructions fetched each cycle (Total)
system.switch_cpus0.fetch.rateDist::3          280663      3.61%     67.29% # Number of instructions fetched each cycle (Total)
system.switch_cpus0.fetch.rateDist::4          457156      5.88%     73.16% # Number of instructions fetched each cycle (Total)
system.switch_cpus0.fetch.rateDist::5          474586      6.10%     79.26% # Number of instructions fetched each cycle (Total)
system.switch_cpus0.fetch.rateDist::6          114230      1.47%     80.73% # Number of instructions fetched each cycle (Total)
system.switch_cpus0.fetch.rateDist::7           85592      1.10%     81.83% # Number of instructions fetched each cycle (Total)
system.switch_cpus0.fetch.rateDist::8         1413803     18.17%    100.00% # Number of instructions fetched each cycle (Total)
system.switch_cpus0.fetch.rateDist::overflows            0      0.00%    100.00% # Number of instructions fetched each cycle (Total)
system.switch_cpus0.fetch.rateDist::min_value            0                       # Number of instructions fetched each cycle (Total)
system.switch_cpus0.fetch.rateDist::max_value            8                       # Number of instructions fetched each cycle (Total)
system.switch_cpus0.fetch.rateDist::total      7780475                       # Number of instructions fetched each cycle (Total)
system.switch_cpus0.fetch.branchRate         0.363249                       # Number of branch fetches per cycle
system.switch_cpus0.fetch.rate               2.020271                       # Number of inst fetches per cycle
system.switch_cpus0.decode.IdleCycles         3492432                       # Number of cycles decode is idle
system.switch_cpus0.decode.BlockedCycles       371504                       # Number of cycles decode is blocked
system.switch_cpus0.decode.RunCycles          3182224                       # Number of cycles decode is running
system.switch_cpus0.decode.UnblockCycles        12740                       # Number of cycles decode is unblocking
system.switch_cpus0.decode.SquashCycles        721565                       # Number of cycles decode is squashing
system.switch_cpus0.decode.BranchResolved       313491                       # Number of times decode resolved a branch
system.switch_cpus0.decode.BranchMispred          720                       # Number of times decode detected a branch misprediction
system.switch_cpus0.decode.DecodedInsts      17874419                       # Number of instructions handled by decode
system.switch_cpus0.decode.SquashedInsts         1291                       # Number of squashed instructions handled by decode
system.switch_cpus0.rename.SquashCycles        721565                       # Number of cycles rename is squashing
system.switch_cpus0.rename.IdleCycles         3641267                       # Number of cycles rename is idle
system.switch_cpus0.rename.BlockCycles         127111                       # Number of cycles rename is blocking
system.switch_cpus0.rename.serializeStallCycles        42837                       # count of cycles rename stalled for serializing inst
system.switch_cpus0.rename.RunCycles          3044783                       # Number of cycles rename is running
system.switch_cpus0.rename.UnblockCycles       202903                       # Number of cycles rename is unblocking
system.switch_cpus0.rename.RenamedInsts      17390323                       # Number of instructions processed by rename
system.switch_cpus0.rename.ROBFullEvents            9                       # Number of times rename has blocked due to ROB full
system.switch_cpus0.rename.IQFullEvents         69099                       # Number of times rename has blocked due to IQ full
system.switch_cpus0.rename.LSQFullEvents        82234                       # Number of times rename has blocked due to LSQ full
system.switch_cpus0.rename.RenamedOperands     23096368                       # Number of destination operands rename has renamed
system.switch_cpus0.rename.RenameLookups     79178394                       # Number of register rename lookups that rename has made
system.switch_cpus0.rename.int_rename_lookups     79178394                       # Number of integer rename lookups
system.switch_cpus0.rename.CommittedMaps     14913019                       # Number of HB maps that are committed
system.switch_cpus0.rename.UndoneMaps         8183318                       # Number of HB maps that are undone due to squashing
system.switch_cpus0.rename.serializingInsts         2043                       # count of serializing insts renamed
system.switch_cpus0.rename.tempSerializingInsts         1001                       # count of temporary serializing insts renamed
system.switch_cpus0.rename.skidInsts           544833                       # count of insts added to the skid buffer
system.switch_cpus0.memDep0.insertedLoads      2668856                       # Number of loads inserted to the mem dependence unit.
system.switch_cpus0.memDep0.insertedStores       582292                       # Number of stores inserted to the mem dependence unit.
system.switch_cpus0.memDep0.conflictingLoads         9511                       # Number of conflicting loads.
system.switch_cpus0.memDep0.conflictingStores       196895                       # Number of conflicting stores.
system.switch_cpus0.iq.iqInstsAdded          16447602                       # Number of instructions added to the IQ (excludes non-spec)
system.switch_cpus0.iq.iqNonSpecInstsAdded         2001                       # Number of non-speculative instructions added to the IQ
system.switch_cpus0.iq.iqInstsIssued         13842631                       # Number of instructions issued
system.switch_cpus0.iq.iqSquashedInstsIssued        18338                       # Number of squashed instructions issued
system.switch_cpus0.iq.iqSquashedInstsExamined      5019552                       # Number of squashed instructions iterated over during squash; mainly for profiling
system.switch_cpus0.iq.iqSquashedOperandsExamined     13766623                       # Number of squashed operands that are examined and possibly removed from graph
system.switch_cpus0.iq.iqSquashedNonSpecRemoved            1                       # Number of squashed non-spec instructions that were removed
system.switch_cpus0.iq.issued_per_cycle::samples      7780475                       # Number of insts issued each cycle
system.switch_cpus0.iq.issued_per_cycle::mean     1.779150                       # Number of insts issued each cycle
system.switch_cpus0.iq.issued_per_cycle::stdev     1.840425                       # Number of insts issued each cycle
system.switch_cpus0.iq.issued_per_cycle::underflows            0      0.00%      0.00% # Number of insts issued each cycle
system.switch_cpus0.iq.issued_per_cycle::0      2715614     34.90%     34.90% # Number of insts issued each cycle
system.switch_cpus0.iq.issued_per_cycle::1      1449029     18.62%     53.53% # Number of insts issued each cycle
system.switch_cpus0.iq.issued_per_cycle::2      1256528     16.15%     69.68% # Number of insts issued each cycle
system.switch_cpus0.iq.issued_per_cycle::3       773883      9.95%     79.62% # Number of insts issued each cycle
system.switch_cpus0.iq.issued_per_cycle::4       806542     10.37%     89.99% # Number of insts issued each cycle
system.switch_cpus0.iq.issued_per_cycle::5       473671      6.09%     96.08% # Number of insts issued each cycle
system.switch_cpus0.iq.issued_per_cycle::6       210681      2.71%     98.79% # Number of insts issued each cycle
system.switch_cpus0.iq.issued_per_cycle::7        55928      0.72%     99.50% # Number of insts issued each cycle
system.switch_cpus0.iq.issued_per_cycle::8        38599      0.50%    100.00% # Number of insts issued each cycle
system.switch_cpus0.iq.issued_per_cycle::overflows            0      0.00%    100.00% # Number of insts issued each cycle
system.switch_cpus0.iq.issued_per_cycle::min_value            0                       # Number of insts issued each cycle
system.switch_cpus0.iq.issued_per_cycle::max_value            8                       # Number of insts issued each cycle
system.switch_cpus0.iq.issued_per_cycle::total      7780475                       # Number of insts issued each cycle
system.switch_cpus0.iq.fu_full::No_OpClass            0      0.00%      0.00% # attempts to use FU when none available
system.switch_cpus0.iq.fu_full::IntAlu          54681     66.49%     66.49% # attempts to use FU when none available
system.switch_cpus0.iq.fu_full::IntMult             0      0.00%     66.49% # attempts to use FU when none available
system.switch_cpus0.iq.fu_full::IntDiv              0      0.00%     66.49% # attempts to use FU when none available
system.switch_cpus0.iq.fu_full::FloatAdd            0      0.00%     66.49% # attempts to use FU when none available
system.switch_cpus0.iq.fu_full::FloatCmp            0      0.00%     66.49% # attempts to use FU when none available
system.switch_cpus0.iq.fu_full::FloatCvt            0      0.00%     66.49% # attempts to use FU when none available
system.switch_cpus0.iq.fu_full::FloatMult            0      0.00%     66.49% # attempts to use FU when none available
system.switch_cpus0.iq.fu_full::FloatDiv            0      0.00%     66.49% # attempts to use FU when none available
system.switch_cpus0.iq.fu_full::FloatSqrt            0      0.00%     66.49% # attempts to use FU when none available
system.switch_cpus0.iq.fu_full::SimdAdd             0      0.00%     66.49% # attempts to use FU when none available
system.switch_cpus0.iq.fu_full::SimdAddAcc            0      0.00%     66.49% # attempts to use FU when none available
system.switch_cpus0.iq.fu_full::SimdAlu             0      0.00%     66.49% # attempts to use FU when none available
system.switch_cpus0.iq.fu_full::SimdCmp             0      0.00%     66.49% # attempts to use FU when none available
system.switch_cpus0.iq.fu_full::SimdCvt             0      0.00%     66.49% # attempts to use FU when none available
system.switch_cpus0.iq.fu_full::SimdMisc            0      0.00%     66.49% # attempts to use FU when none available
system.switch_cpus0.iq.fu_full::SimdMult            0      0.00%     66.49% # attempts to use FU when none available
system.switch_cpus0.iq.fu_full::SimdMultAcc            0      0.00%     66.49% # attempts to use FU when none available
system.switch_cpus0.iq.fu_full::SimdShift            0      0.00%     66.49% # attempts to use FU when none available
system.switch_cpus0.iq.fu_full::SimdShiftAcc            0      0.00%     66.49% # attempts to use FU when none available
system.switch_cpus0.iq.fu_full::SimdSqrt            0      0.00%     66.49% # attempts to use FU when none available
system.switch_cpus0.iq.fu_full::SimdFloatAdd            0      0.00%     66.49% # attempts to use FU when none available
system.switch_cpus0.iq.fu_full::SimdFloatAlu            0      0.00%     66.49% # attempts to use FU when none available
system.switch_cpus0.iq.fu_full::SimdFloatCmp            0      0.00%     66.49% # attempts to use FU when none available
system.switch_cpus0.iq.fu_full::SimdFloatCvt            0      0.00%     66.49% # attempts to use FU when none available
system.switch_cpus0.iq.fu_full::SimdFloatDiv            0      0.00%     66.49% # attempts to use FU when none available
system.switch_cpus0.iq.fu_full::SimdFloatMisc            0      0.00%     66.49% # attempts to use FU when none available
system.switch_cpus0.iq.fu_full::SimdFloatMult            0      0.00%     66.49% # attempts to use FU when none available
system.switch_cpus0.iq.fu_full::SimdFloatMultAcc            0      0.00%     66.49% # attempts to use FU when none available
system.switch_cpus0.iq.fu_full::SimdFloatSqrt            0      0.00%     66.49% # attempts to use FU when none available
system.switch_cpus0.iq.fu_full::MemRead         17443     21.21%     87.70% # attempts to use FU when none available
system.switch_cpus0.iq.fu_full::MemWrite        10118     12.30%    100.00% # attempts to use FU when none available
system.switch_cpus0.iq.fu_full::IprAccess            0      0.00%    100.00% # attempts to use FU when none available
system.switch_cpus0.iq.fu_full::InstPrefetch            0      0.00%    100.00% # attempts to use FU when none available
system.switch_cpus0.iq.FU_type_0::No_OpClass            0      0.00%      0.00% # Type of FU issued
system.switch_cpus0.iq.FU_type_0::IntAlu     10860678     78.46%     78.46% # Type of FU issued
system.switch_cpus0.iq.FU_type_0::IntMult       109544      0.79%     79.25% # Type of FU issued
system.switch_cpus0.iq.FU_type_0::IntDiv            0      0.00%     79.25% # Type of FU issued
system.switch_cpus0.iq.FU_type_0::FloatAdd            0      0.00%     79.25% # Type of FU issued
system.switch_cpus0.iq.FU_type_0::FloatCmp            0      0.00%     79.25% # Type of FU issued
system.switch_cpus0.iq.FU_type_0::FloatCvt            0      0.00%     79.25% # Type of FU issued
system.switch_cpus0.iq.FU_type_0::FloatMult            0      0.00%     79.25% # Type of FU issued
system.switch_cpus0.iq.FU_type_0::FloatDiv            0      0.00%     79.25% # Type of FU issued
system.switch_cpus0.iq.FU_type_0::FloatSqrt            0      0.00%     79.25% # Type of FU issued
system.switch_cpus0.iq.FU_type_0::SimdAdd            0      0.00%     79.25% # Type of FU issued
system.switch_cpus0.iq.FU_type_0::SimdAddAcc            0      0.00%     79.25% # Type of FU issued
system.switch_cpus0.iq.FU_type_0::SimdAlu            0      0.00%     79.25% # Type of FU issued
system.switch_cpus0.iq.FU_type_0::SimdCmp            0      0.00%     79.25% # Type of FU issued
system.switch_cpus0.iq.FU_type_0::SimdCvt            0      0.00%     79.25% # Type of FU issued
system.switch_cpus0.iq.FU_type_0::SimdMisc            0      0.00%     79.25% # Type of FU issued
system.switch_cpus0.iq.FU_type_0::SimdMult            0      0.00%     79.25% # Type of FU issued
system.switch_cpus0.iq.FU_type_0::SimdMultAcc            0      0.00%     79.25% # Type of FU issued
system.switch_cpus0.iq.FU_type_0::SimdShift            0      0.00%     79.25% # Type of FU issued
system.switch_cpus0.iq.FU_type_0::SimdShiftAcc            0      0.00%     79.25% # Type of FU issued
system.switch_cpus0.iq.FU_type_0::SimdSqrt            0      0.00%     79.25% # Type of FU issued
system.switch_cpus0.iq.FU_type_0::SimdFloatAdd            0      0.00%     79.25% # Type of FU issued
system.switch_cpus0.iq.FU_type_0::SimdFloatAlu            0      0.00%     79.25% # Type of FU issued
system.switch_cpus0.iq.FU_type_0::SimdFloatCmp            0      0.00%     79.25% # Type of FU issued
system.switch_cpus0.iq.FU_type_0::SimdFloatCvt            0      0.00%     79.25% # Type of FU issued
system.switch_cpus0.iq.FU_type_0::SimdFloatDiv            0      0.00%     79.25% # Type of FU issued
system.switch_cpus0.iq.FU_type_0::SimdFloatMisc         1000      0.01%     79.26% # Type of FU issued
system.switch_cpus0.iq.FU_type_0::SimdFloatMult            0      0.00%     79.26% # Type of FU issued
system.switch_cpus0.iq.FU_type_0::SimdFloatMultAcc            0      0.00%     79.26% # Type of FU issued
system.switch_cpus0.iq.FU_type_0::SimdFloatSqrt            0      0.00%     79.26% # Type of FU issued
system.switch_cpus0.iq.FU_type_0::MemRead      2376614     17.17%     96.43% # Type of FU issued
system.switch_cpus0.iq.FU_type_0::MemWrite       494795      3.57%    100.00% # Type of FU issued
system.switch_cpus0.iq.FU_type_0::IprAccess            0      0.00%    100.00% # Type of FU issued
system.switch_cpus0.iq.FU_type_0::InstPrefetch            0      0.00%    100.00% # Type of FU issued
system.switch_cpus0.iq.FU_type_0::total      13842631                       # Type of FU issued
system.switch_cpus0.iq.rate                  1.750683                       # Inst issue rate
system.switch_cpus0.iq.fu_busy_cnt              82242                       # FU busy when requested
system.switch_cpus0.iq.fu_busy_rate          0.005941                       # FU busy rate (busy events/executed inst)
system.switch_cpus0.iq.int_inst_queue_reads     35566316                       # Number of integer instruction queue reads
system.switch_cpus0.iq.int_inst_queue_writes     21469207                       # Number of integer instruction queue writes
system.switch_cpus0.iq.int_inst_queue_wakeup_accesses     13380348                       # Number of integer instruction queue wakeup accesses
system.switch_cpus0.iq.fp_inst_queue_reads            0                       # Number of floating instruction queue reads
system.switch_cpus0.iq.fp_inst_queue_writes            0                       # Number of floating instruction queue writes
system.switch_cpus0.iq.fp_inst_queue_wakeup_accesses            0                       # Number of floating instruction queue wakeup accesses
system.switch_cpus0.iq.int_alu_accesses      13924873                       # Number of integer alu accesses
system.switch_cpus0.iq.fp_alu_accesses              0                       # Number of floating point alu accesses
system.switch_cpus0.iew.lsq.thread0.forwLoads        34063                       # Number of loads that had data forwarded from stores
system.switch_cpus0.iew.lsq.thread0.invAddrLoads            0                       # Number of loads ignored due to an invalid address
system.switch_cpus0.iew.lsq.thread0.squashedLoads       783902                       # Number of loads squashed
system.switch_cpus0.iew.lsq.thread0.ignoredResponses           90                       # Number of memory responses ignored because the instruction is squashed
system.switch_cpus0.iew.lsq.thread0.memOrderViolation           52                       # Number of memory ordering violations
system.switch_cpus0.iew.lsq.thread0.squashedStores       143351                       # Number of stores squashed
system.switch_cpus0.iew.lsq.thread0.invAddrSwpfs            0                       # Number of software prefetches ignored due to an invalid address
system.switch_cpus0.iew.lsq.thread0.blockedLoads            0                       # Number of blocked loads due to partial load-store forwarding
system.switch_cpus0.iew.lsq.thread0.rescheduledLoads            0                       # Number of loads that were rescheduled
system.switch_cpus0.iew.lsq.thread0.cacheBlocked            0                       # Number of times an access to memory failed due to the cache being blocked
system.switch_cpus0.iew.iewIdleCycles               0                       # Number of cycles IEW is idle
system.switch_cpus0.iew.iewSquashCycles        721565                       # Number of cycles IEW is squashing
system.switch_cpus0.iew.iewBlockCycles          68206                       # Number of cycles IEW is blocking
system.switch_cpus0.iew.iewUnblockCycles         5916                       # Number of cycles IEW is unblocking
system.switch_cpus0.iew.iewDispatchedInsts     16449606                       # Number of instructions dispatched to IQ
system.switch_cpus0.iew.iewDispSquashedInsts        19526                       # Number of squashed instructions skipped by dispatch
system.switch_cpus0.iew.iewDispLoadInsts      2668856                       # Number of dispatched load instructions
system.switch_cpus0.iew.iewDispStoreInsts       582292                       # Number of dispatched store instructions
system.switch_cpus0.iew.iewDispNonSpecInsts         1001                       # Number of dispatched non-speculative instructions
system.switch_cpus0.iew.iewIQFullEvents          3110                       # Number of times the IQ has become full, causing a stall
system.switch_cpus0.iew.iewLSQFullEvents           36                       # Number of times the LSQ has become full, causing a stall
system.switch_cpus0.iew.memOrderViolationEvents           52                       # Number of memory order violations
system.switch_cpus0.iew.predictedTakenIncorrect        98379                       # Number of branches that were predicted taken incorrectly
system.switch_cpus0.iew.predictedNotTakenIncorrect       109567                       # Number of branches that were predicted not taken incorrectly
system.switch_cpus0.iew.branchMispredicts       207946                       # Number of branch mispredicts detected at execute
system.switch_cpus0.iew.iewExecutedInsts     13577163                       # Number of executed instructions
system.switch_cpus0.iew.iewExecLoadInsts      2281113                       # Number of load instructions executed
system.switch_cpus0.iew.iewExecSquashedInsts       265467                       # Number of squashed instructions skipped in execute
system.switch_cpus0.iew.exec_swp                    0                       # number of swp insts executed
system.switch_cpus0.iew.exec_nop                    3                       # number of nop insts executed
system.switch_cpus0.iew.exec_refs             2763597                       # number of memory reference insts executed
system.switch_cpus0.iew.exec_branches         2048577                       # Number of branches executed
system.switch_cpus0.iew.exec_stores            482484                       # Number of stores executed
system.switch_cpus0.iew.exec_rate            1.717109                       # Inst execution rate
system.switch_cpus0.iew.wb_sent              13395740                       # cumulative count of insts sent to commit
system.switch_cpus0.iew.wb_count             13380348                       # cumulative count of insts written-back
system.switch_cpus0.iew.wb_producers          8218865                       # num instructions producing a value
system.switch_cpus0.iew.wb_consumers         20100133                       # num instructions consuming a value
system.switch_cpus0.iew.wb_penalized                0                       # number of instrctions required to write to 'other' IQ
system.switch_cpus0.iew.wb_rate              1.692217                       # insts written-back per cycle
system.switch_cpus0.iew.wb_fanout            0.408896                       # average fanout of values written-back
system.switch_cpus0.iew.wb_penalized_rate            0                       # fraction of instructions written-back that wrote to 'other' IQ
system.switch_cpus0.commit.commitCommittedInsts     10000002                       # The number of committed instructions
system.switch_cpus0.commit.commitCommittedOps     11371778                       # The number of committed instructions
system.switch_cpus0.commit.commitSquashedInsts      5077893                       # The number of squashed insts skipped by commit
system.switch_cpus0.commit.commitNonSpecStalls         2000                       # The number of times commit has been forced to stall to communicate backwards
system.switch_cpus0.commit.branchMispredicts       185708                       # The number of times a branch was mispredicted
system.switch_cpus0.commit.committed_per_cycle::samples      7058910                       # Number of insts commited each cycle
system.switch_cpus0.commit.committed_per_cycle::mean     1.610982                       # Number of insts commited each cycle
system.switch_cpus0.commit.committed_per_cycle::stdev     2.309984                       # Number of insts commited each cycle
system.switch_cpus0.commit.committed_per_cycle::underflows            0      0.00%      0.00% # Number of insts commited each cycle
system.switch_cpus0.commit.committed_per_cycle::0      3262755     46.22%     46.22% # Number of insts commited each cycle
system.switch_cpus0.commit.committed_per_cycle::1      1494051     21.17%     67.39% # Number of insts commited each cycle
system.switch_cpus0.commit.committed_per_cycle::2       834044     11.82%     79.20% # Number of insts commited each cycle
system.switch_cpus0.commit.committed_per_cycle::3       283521      4.02%     83.22% # Number of insts commited each cycle
system.switch_cpus0.commit.committed_per_cycle::4       272813      3.86%     87.08% # Number of insts commited each cycle
system.switch_cpus0.commit.committed_per_cycle::5       113844      1.61%     88.70% # Number of insts commited each cycle
system.switch_cpus0.commit.committed_per_cycle::6       297783      4.22%     92.92% # Number of insts commited each cycle
system.switch_cpus0.commit.committed_per_cycle::7        88886      1.26%     94.17% # Number of insts commited each cycle
system.switch_cpus0.commit.committed_per_cycle::8       411213      5.83%    100.00% # Number of insts commited each cycle
system.switch_cpus0.commit.committed_per_cycle::overflows            0      0.00%    100.00% # Number of insts commited each cycle
system.switch_cpus0.commit.committed_per_cycle::min_value            0                       # Number of insts commited each cycle
system.switch_cpus0.commit.committed_per_cycle::max_value            8                       # Number of insts commited each cycle
system.switch_cpus0.commit.committed_per_cycle::total      7058910                       # Number of insts commited each cycle
system.switch_cpus0.commit.committedInsts     10000002                       # Number of instructions committed
system.switch_cpus0.commit.committedOps      11371778                       # Number of ops (including micro ops) committed
system.switch_cpus0.commit.swp_count                0                       # Number of s/w prefetches committed
system.switch_cpus0.commit.refs               2323892                       # Number of memory references committed
system.switch_cpus0.commit.loads              1884951                       # Number of loads committed
system.switch_cpus0.commit.membars               1000                       # Number of memory barriers committed
system.switch_cpus0.commit.branches           1779029                       # Number of branches committed
system.switch_cpus0.commit.fp_insts                 0                       # Number of committed floating point instructions.
system.switch_cpus0.commit.int_insts          9931216                       # Number of committed integer instructions.
system.switch_cpus0.commit.function_calls       154874                       # Number of function calls committed.
system.switch_cpus0.commit.bw_lim_events       411213                       # number cycles where commit BW limit reached
system.switch_cpus0.commit.bw_limited               0                       # number of insts not committed due to BW limits
system.switch_cpus0.rob.rob_reads            23097368                       # The number of ROB reads
system.switch_cpus0.rob.rob_writes           33621536                       # The number of ROB writes
system.switch_cpus0.timesIdled                   2966                       # Number of times that the entire CPU went into an idle state and unscheduled itself
system.switch_cpus0.idleCycles                 126516                       # Total number of cycles that the CPU has spent unscheduled due to idling
system.switch_cpus0.committedInsts           10000002                       # Number of Instructions Simulated
system.switch_cpus0.committedOps             11371778                       # Number of Ops (including micro ops) Simulated
system.switch_cpus0.committedInsts_total     10000002                       # Number of Instructions Simulated
system.switch_cpus0.cpi                      0.790699                       # CPI: Cycles Per Instruction
system.switch_cpus0.cpi_total                0.790699                       # CPI: Total CPI of All Threads
system.switch_cpus0.ipc                      1.264704                       # IPC: Instructions Per Cycle
system.switch_cpus0.ipc_total                1.264704                       # IPC: Total IPC of All Threads
system.switch_cpus0.int_regfile_reads        62785037                       # number of integer regfile reads
system.switch_cpus0.int_regfile_writes       17547925                       # number of integer regfile writes
system.switch_cpus0.misc_regfile_reads       18400552                       # number of misc regfile reads
system.switch_cpus0.misc_regfile_writes          2000                       # number of misc regfile writes
system.switch_cpus1.dtb.inst_hits                   0                       # ITB inst hits
system.switch_cpus1.dtb.inst_misses                 0                       # ITB inst misses
system.switch_cpus1.dtb.read_hits                   0                       # DTB read hits
system.switch_cpus1.dtb.read_misses                 0                       # DTB read misses
system.switch_cpus1.dtb.write_hits                  0                       # DTB write hits
system.switch_cpus1.dtb.write_misses                0                       # DTB write misses
system.switch_cpus1.dtb.flush_tlb                   0                       # Number of times complete TLB was flushed
system.switch_cpus1.dtb.flush_tlb_mva               0                       # Number of times TLB was flushed by MVA
system.switch_cpus1.dtb.flush_tlb_mva_asid            0                       # Number of times TLB was flushed by MVA & ASID
system.switch_cpus1.dtb.flush_tlb_asid              0                       # Number of times TLB was flushed by ASID
system.switch_cpus1.dtb.flush_entries               0                       # Number of entries that have been flushed from TLB
system.switch_cpus1.dtb.align_faults                0                       # Number of TLB faults due to alignment restrictions
system.switch_cpus1.dtb.prefetch_faults             0                       # Number of TLB faults due to prefetch
system.switch_cpus1.dtb.domain_faults               0                       # Number of TLB faults due to domain restrictions
system.switch_cpus1.dtb.perms_faults                0                       # Number of TLB faults due to permissions restrictions
system.switch_cpus1.dtb.read_accesses               0                       # DTB read accesses
system.switch_cpus1.dtb.write_accesses              0                       # DTB write accesses
system.switch_cpus1.dtb.inst_accesses               0                       # ITB inst accesses
system.switch_cpus1.dtb.hits                        0                       # DTB hits
system.switch_cpus1.dtb.misses                      0                       # DTB misses
system.switch_cpus1.dtb.accesses                    0                       # DTB accesses
system.switch_cpus1.itb.inst_hits                   0                       # ITB inst hits
system.switch_cpus1.itb.inst_misses                 0                       # ITB inst misses
system.switch_cpus1.itb.read_hits                   0                       # DTB read hits
system.switch_cpus1.itb.read_misses                 0                       # DTB read misses
system.switch_cpus1.itb.write_hits                  0                       # DTB write hits
system.switch_cpus1.itb.write_misses                0                       # DTB write misses
system.switch_cpus1.itb.flush_tlb                   0                       # Number of times complete TLB was flushed
system.switch_cpus1.itb.flush_tlb_mva               0                       # Number of times TLB was flushed by MVA
system.switch_cpus1.itb.flush_tlb_mva_asid            0                       # Number of times TLB was flushed by MVA & ASID
system.switch_cpus1.itb.flush_tlb_asid              0                       # Number of times TLB was flushed by ASID
system.switch_cpus1.itb.flush_entries               0                       # Number of entries that have been flushed from TLB
system.switch_cpus1.itb.align_faults                0                       # Number of TLB faults due to alignment restrictions
system.switch_cpus1.itb.prefetch_faults             0                       # Number of TLB faults due to prefetch
system.switch_cpus1.itb.domain_faults               0                       # Number of TLB faults due to domain restrictions
system.switch_cpus1.itb.perms_faults                0                       # Number of TLB faults due to permissions restrictions
system.switch_cpus1.itb.read_accesses               0                       # DTB read accesses
system.switch_cpus1.itb.write_accesses              0                       # DTB write accesses
system.switch_cpus1.itb.inst_accesses               0                       # ITB inst accesses
system.switch_cpus1.itb.hits                        0                       # DTB hits
system.switch_cpus1.itb.misses                      0                       # DTB misses
system.switch_cpus1.itb.accesses                    0                       # DTB accesses
system.cpu1.workload.num_syscalls                   0                       # Number of system calls
system.switch_cpus1.numCycles                 7906991                       # number of cpu cycles simulated
system.switch_cpus1.numWorkItemsStarted             0                       # number of work items this cpu started
system.switch_cpus1.numWorkItemsCompleted            0                       # number of work items this cpu completed
system.switch_cpus1.BPredUnit.lookups         2846832                       # Number of BP lookups
system.switch_cpus1.BPredUnit.condPredicted      2314717                       # Number of conditional branches predicted
system.switch_cpus1.BPredUnit.condIncorrect       195944                       # Number of conditional branches incorrect
system.switch_cpus1.BPredUnit.BTBLookups      1184266                       # Number of BTB lookups
system.switch_cpus1.BPredUnit.BTBHits         1104034                       # Number of BTB hits
system.switch_cpus1.BPredUnit.BTBCorrect            0                       # Number of correct BTB predictions (this stat may not work properly.
system.switch_cpus1.BPredUnit.usedRAS          299607                       # Number of times the RAS was used to get a target.
system.switch_cpus1.BPredUnit.RASInCorrect         8399                       # Number of incorrect RAS predictions.
system.switch_cpus1.fetch.icacheStallCycles      2855775                       # Number of cycles fetch is stalled on an Icache miss
system.switch_cpus1.fetch.Insts              15795165                       # Number of instructions fetch has processed
system.switch_cpus1.fetch.Branches            2846832                       # Number of branches that fetch encountered
system.switch_cpus1.fetch.predictedBranches      1403641                       # Number of branches that fetch has predicted taken
system.switch_cpus1.fetch.Cycles              3469881                       # Number of cycles fetch has run and was not squashing or blocked
system.switch_cpus1.fetch.SquashCycles        1047989                       # Number of cycles fetch has spent squashing
system.switch_cpus1.fetch.BlockedCycles        590911                       # Number of cycles fetch has spent blocked
system.switch_cpus1.fetch.PendingTrapStallCycles           12                       # Number of stall cycles due to pending traps
system.switch_cpus1.fetch.CacheLines          1398335                       # Number of cache lines fetched
system.switch_cpus1.fetch.IcacheSquashes        83798                       # Number of outstanding Icache misses that were squashed
system.switch_cpus1.fetch.rateDist::samples      7764305                       # Number of instructions fetched each cycle (Total)
system.switch_cpus1.fetch.rateDist::mean     2.513795                       # Number of instructions fetched each cycle (Total)
system.switch_cpus1.fetch.rateDist::stdev     3.307531                       # Number of instructions fetched each cycle (Total)
system.switch_cpus1.fetch.rateDist::underflows            0      0.00%      0.00% # Number of instructions fetched each cycle (Total)
system.switch_cpus1.fetch.rateDist::0         4294424     55.31%     55.31% # Number of instructions fetched each cycle (Total)
system.switch_cpus1.fetch.rateDist::1          305039      3.93%     59.24% # Number of instructions fetched each cycle (Total)
system.switch_cpus1.fetch.rateDist::2          244029      3.14%     62.38% # Number of instructions fetched each cycle (Total)
system.switch_cpus1.fetch.rateDist::3          596729      7.69%     70.07% # Number of instructions fetched each cycle (Total)
system.switch_cpus1.fetch.rateDist::4          160061      2.06%     72.13% # Number of instructions fetched each cycle (Total)
system.switch_cpus1.fetch.rateDist::5          209198      2.69%     74.82% # Number of instructions fetched each cycle (Total)
system.switch_cpus1.fetch.rateDist::6          152896      1.97%     76.79% # Number of instructions fetched each cycle (Total)
system.switch_cpus1.fetch.rateDist::7           84454      1.09%     77.88% # Number of instructions fetched each cycle (Total)
system.switch_cpus1.fetch.rateDist::8         1717475     22.12%    100.00% # Number of instructions fetched each cycle (Total)
system.switch_cpus1.fetch.rateDist::overflows            0      0.00%    100.00% # Number of instructions fetched each cycle (Total)
system.switch_cpus1.fetch.rateDist::min_value            0                       # Number of instructions fetched each cycle (Total)
system.switch_cpus1.fetch.rateDist::max_value            8                       # Number of instructions fetched each cycle (Total)
system.switch_cpus1.fetch.rateDist::total      7764305                       # Number of instructions fetched each cycle (Total)
system.switch_cpus1.fetch.branchRate         0.360040                       # Number of branch fetches per cycle
system.switch_cpus1.fetch.rate               1.997620                       # Number of inst fetches per cycle
system.switch_cpus1.decode.IdleCycles         2988395                       # Number of cycles decode is idle
system.switch_cpus1.decode.BlockedCycles       574616                       # Number of cycles decode is blocked
system.switch_cpus1.decode.RunCycles          3334777                       # Number of cycles decode is running
system.switch_cpus1.decode.UnblockCycles        23019                       # Number of cycles decode is unblocking
system.switch_cpus1.decode.SquashCycles        843493                       # Number of cycles decode is squashing
system.switch_cpus1.decode.BranchResolved       485008                       # Number of times decode resolved a branch
system.switch_cpus1.decode.BranchMispred         4289                       # Number of times decode detected a branch misprediction
system.switch_cpus1.decode.DecodedInsts      18876674                       # Number of instructions handled by decode
system.switch_cpus1.decode.SquashedInsts         9799                       # Number of squashed instructions handled by decode
system.switch_cpus1.rename.SquashCycles        843493                       # Number of cycles rename is squashing
system.switch_cpus1.rename.IdleCycles         3208607                       # Number of cycles rename is idle
system.switch_cpus1.rename.BlockCycles         124388                       # Number of cycles rename is blocking
system.switch_cpus1.rename.serializeStallCycles       126444                       # count of cycles rename stalled for serializing inst
system.switch_cpus1.rename.RunCycles          3132498                       # Number of cycles rename is running
system.switch_cpus1.rename.UnblockCycles       328870                       # Number of cycles rename is unblocking
system.switch_cpus1.rename.RenamedInsts      18205603                       # Number of instructions processed by rename
system.switch_cpus1.rename.ROBFullEvents         2726                       # Number of times rename has blocked due to ROB full
system.switch_cpus1.rename.IQFullEvents        135219                       # Number of times rename has blocked due to IQ full
system.switch_cpus1.rename.LSQFullEvents       103093                       # Number of times rename has blocked due to LSQ full
system.switch_cpus1.rename.FullRegisterEvents           48                       # Number of times there has been no free registers
system.switch_cpus1.rename.RenamedOperands     25489617                       # Number of destination operands rename has renamed
system.switch_cpus1.rename.RenameLookups     84983518                       # Number of register rename lookups that rename has made
system.switch_cpus1.rename.int_rename_lookups     84983518                       # Number of integer rename lookups
system.switch_cpus1.rename.CommittedMaps     15580477                       # Number of HB maps that are committed
system.switch_cpus1.rename.UndoneMaps         9909071                       # Number of HB maps that are undone due to squashing
system.switch_cpus1.rename.serializingInsts         3782                       # count of serializing insts renamed
system.switch_cpus1.rename.tempSerializingInsts         2141                       # count of temporary serializing insts renamed
system.switch_cpus1.rename.skidInsts           905856                       # count of insts added to the skid buffer
system.switch_cpus1.memDep0.insertedLoads      1700158                       # Number of loads inserted to the mem dependence unit.
system.switch_cpus1.memDep0.insertedStores       865733                       # Number of stores inserted to the mem dependence unit.
system.switch_cpus1.memDep0.conflictingLoads        13483                       # Number of conflicting loads.
system.switch_cpus1.memDep0.conflictingStores       293514                       # Number of conflicting stores.
system.switch_cpus1.iq.iqInstsAdded          17204724                       # Number of instructions added to the IQ (excludes non-spec)
system.switch_cpus1.iq.iqNonSpecInstsAdded         3631                       # Number of non-speculative instructions added to the IQ
system.switch_cpus1.iq.iqInstsIssued         13650524                       # Number of instructions issued
system.switch_cpus1.iq.iqSquashedInstsIssued        27632                       # Number of squashed instructions issued
system.switch_cpus1.iq.iqSquashedInstsExamined      5968485                       # Number of squashed instructions iterated over during squash; mainly for profiling
system.switch_cpus1.iq.iqSquashedOperandsExamined     18238597                       # Number of squashed operands that are examined and possibly removed from graph
system.switch_cpus1.iq.iqSquashedNonSpecRemoved          611                       # Number of squashed non-spec instructions that were removed
system.switch_cpus1.iq.issued_per_cycle::samples      7764305                       # Number of insts issued each cycle
system.switch_cpus1.iq.issued_per_cycle::mean     1.758113                       # Number of insts issued each cycle
system.switch_cpus1.iq.issued_per_cycle::stdev     1.886525                       # Number of insts issued each cycle
system.switch_cpus1.iq.issued_per_cycle::underflows            0      0.00%      0.00% # Number of insts issued each cycle
system.switch_cpus1.iq.issued_per_cycle::0      2706300     34.86%     34.86% # Number of insts issued each cycle
system.switch_cpus1.iq.issued_per_cycle::1      1663874     21.43%     56.29% # Number of insts issued each cycle
system.switch_cpus1.iq.issued_per_cycle::2      1099222     14.16%     70.44% # Number of insts issued each cycle
system.switch_cpus1.iq.issued_per_cycle::3       808434     10.41%     80.86% # Number of insts issued each cycle
system.switch_cpus1.iq.issued_per_cycle::4       693260      8.93%     89.78% # Number of insts issued each cycle
system.switch_cpus1.iq.issued_per_cycle::5       359216      4.63%     94.41% # Number of insts issued each cycle
system.switch_cpus1.iq.issued_per_cycle::6       310044      3.99%     98.40% # Number of insts issued each cycle
system.switch_cpus1.iq.issued_per_cycle::7        58120      0.75%     99.15% # Number of insts issued each cycle
system.switch_cpus1.iq.issued_per_cycle::8        65835      0.85%    100.00% # Number of insts issued each cycle
system.switch_cpus1.iq.issued_per_cycle::overflows            0      0.00%    100.00% # Number of insts issued each cycle
system.switch_cpus1.iq.issued_per_cycle::min_value            0                       # Number of insts issued each cycle
system.switch_cpus1.iq.issued_per_cycle::max_value            8                       # Number of insts issued each cycle
system.switch_cpus1.iq.issued_per_cycle::total      7764305                       # Number of insts issued each cycle
system.switch_cpus1.iq.fu_full::No_OpClass            0      0.00%      0.00% # attempts to use FU when none available
system.switch_cpus1.iq.fu_full::IntAlu          80123     71.02%     71.02% # attempts to use FU when none available
system.switch_cpus1.iq.fu_full::IntMult             0      0.00%     71.02% # attempts to use FU when none available
system.switch_cpus1.iq.fu_full::IntDiv              0      0.00%     71.02% # attempts to use FU when none available
system.switch_cpus1.iq.fu_full::FloatAdd            0      0.00%     71.02% # attempts to use FU when none available
system.switch_cpus1.iq.fu_full::FloatCmp            0      0.00%     71.02% # attempts to use FU when none available
system.switch_cpus1.iq.fu_full::FloatCvt            0      0.00%     71.02% # attempts to use FU when none available
system.switch_cpus1.iq.fu_full::FloatMult            0      0.00%     71.02% # attempts to use FU when none available
system.switch_cpus1.iq.fu_full::FloatDiv            0      0.00%     71.02% # attempts to use FU when none available
system.switch_cpus1.iq.fu_full::FloatSqrt            0      0.00%     71.02% # attempts to use FU when none available
system.switch_cpus1.iq.fu_full::SimdAdd             0      0.00%     71.02% # attempts to use FU when none available
system.switch_cpus1.iq.fu_full::SimdAddAcc            0      0.00%     71.02% # attempts to use FU when none available
system.switch_cpus1.iq.fu_full::SimdAlu             0      0.00%     71.02% # attempts to use FU when none available
system.switch_cpus1.iq.fu_full::SimdCmp             0      0.00%     71.02% # attempts to use FU when none available
system.switch_cpus1.iq.fu_full::SimdCvt             0      0.00%     71.02% # attempts to use FU when none available
system.switch_cpus1.iq.fu_full::SimdMisc            0      0.00%     71.02% # attempts to use FU when none available
system.switch_cpus1.iq.fu_full::SimdMult            0      0.00%     71.02% # attempts to use FU when none available
system.switch_cpus1.iq.fu_full::SimdMultAcc            0      0.00%     71.02% # attempts to use FU when none available
system.switch_cpus1.iq.fu_full::SimdShift            0      0.00%     71.02% # attempts to use FU when none available
system.switch_cpus1.iq.fu_full::SimdShiftAcc            0      0.00%     71.02% # attempts to use FU when none available
system.switch_cpus1.iq.fu_full::SimdSqrt            0      0.00%     71.02% # attempts to use FU when none available
system.switch_cpus1.iq.fu_full::SimdFloatAdd            0      0.00%     71.02% # attempts to use FU when none available
system.switch_cpus1.iq.fu_full::SimdFloatAlu            0      0.00%     71.02% # attempts to use FU when none available
system.switch_cpus1.iq.fu_full::SimdFloatCmp            0      0.00%     71.02% # attempts to use FU when none available
system.switch_cpus1.iq.fu_full::SimdFloatCvt            0      0.00%     71.02% # attempts to use FU when none available
system.switch_cpus1.iq.fu_full::SimdFloatDiv            0      0.00%     71.02% # attempts to use FU when none available
system.switch_cpus1.iq.fu_full::SimdFloatMisc            0      0.00%     71.02% # attempts to use FU when none available
system.switch_cpus1.iq.fu_full::SimdFloatMult            0      0.00%     71.02% # attempts to use FU when none available
system.switch_cpus1.iq.fu_full::SimdFloatMultAcc            0      0.00%     71.02% # attempts to use FU when none available
system.switch_cpus1.iq.fu_full::SimdFloatSqrt            0      0.00%     71.02% # attempts to use FU when none available
system.switch_cpus1.iq.fu_full::MemRead         16446     14.58%     85.60% # attempts to use FU when none available
system.switch_cpus1.iq.fu_full::MemWrite        16249     14.40%    100.00% # attempts to use FU when none available
system.switch_cpus1.iq.fu_full::IprAccess            0      0.00%    100.00% # attempts to use FU when none available
system.switch_cpus1.iq.fu_full::InstPrefetch            0      0.00%    100.00% # attempts to use FU when none available
system.switch_cpus1.iq.FU_type_0::No_OpClass            0      0.00%      0.00% # Type of FU issued
system.switch_cpus1.iq.FU_type_0::IntAlu     11372777     83.31%     83.31% # Type of FU issued
system.switch_cpus1.iq.FU_type_0::IntMult       193661      1.42%     84.73% # Type of FU issued
system.switch_cpus1.iq.FU_type_0::IntDiv            0      0.00%     84.73% # Type of FU issued
system.switch_cpus1.iq.FU_type_0::FloatAdd            0      0.00%     84.73% # Type of FU issued
system.switch_cpus1.iq.FU_type_0::FloatCmp            0      0.00%     84.73% # Type of FU issued
system.switch_cpus1.iq.FU_type_0::FloatCvt            0      0.00%     84.73% # Type of FU issued
system.switch_cpus1.iq.FU_type_0::FloatMult            0      0.00%     84.73% # Type of FU issued
system.switch_cpus1.iq.FU_type_0::FloatDiv            0      0.00%     84.73% # Type of FU issued
system.switch_cpus1.iq.FU_type_0::FloatSqrt            0      0.00%     84.73% # Type of FU issued
system.switch_cpus1.iq.FU_type_0::SimdAdd            0      0.00%     84.73% # Type of FU issued
system.switch_cpus1.iq.FU_type_0::SimdAddAcc            0      0.00%     84.73% # Type of FU issued
system.switch_cpus1.iq.FU_type_0::SimdAlu            0      0.00%     84.73% # Type of FU issued
system.switch_cpus1.iq.FU_type_0::SimdCmp            0      0.00%     84.73% # Type of FU issued
system.switch_cpus1.iq.FU_type_0::SimdCvt            0      0.00%     84.73% # Type of FU issued
system.switch_cpus1.iq.FU_type_0::SimdMisc            0      0.00%     84.73% # Type of FU issued
system.switch_cpus1.iq.FU_type_0::SimdMult            0      0.00%     84.73% # Type of FU issued
system.switch_cpus1.iq.FU_type_0::SimdMultAcc            0      0.00%     84.73% # Type of FU issued
system.switch_cpus1.iq.FU_type_0::SimdShift            0      0.00%     84.73% # Type of FU issued
system.switch_cpus1.iq.FU_type_0::SimdShiftAcc            0      0.00%     84.73% # Type of FU issued
system.switch_cpus1.iq.FU_type_0::SimdSqrt            0      0.00%     84.73% # Type of FU issued
system.switch_cpus1.iq.FU_type_0::SimdFloatAdd            0      0.00%     84.73% # Type of FU issued
system.switch_cpus1.iq.FU_type_0::SimdFloatAlu            0      0.00%     84.73% # Type of FU issued
system.switch_cpus1.iq.FU_type_0::SimdFloatCmp            0      0.00%     84.73% # Type of FU issued
system.switch_cpus1.iq.FU_type_0::SimdFloatCvt            0      0.00%     84.73% # Type of FU issued
system.switch_cpus1.iq.FU_type_0::SimdFloatDiv            0      0.00%     84.73% # Type of FU issued
system.switch_cpus1.iq.FU_type_0::SimdFloatMisc         1509      0.01%     84.74% # Type of FU issued
system.switch_cpus1.iq.FU_type_0::SimdFloatMult            0      0.00%     84.74% # Type of FU issued
system.switch_cpus1.iq.FU_type_0::SimdFloatMultAcc            0      0.00%     84.74% # Type of FU issued
system.switch_cpus1.iq.FU_type_0::SimdFloatSqrt            0      0.00%     84.74% # Type of FU issued
system.switch_cpus1.iq.FU_type_0::MemRead      1356351      9.94%     94.68% # Type of FU issued
system.switch_cpus1.iq.FU_type_0::MemWrite       726226      5.32%    100.00% # Type of FU issued
system.switch_cpus1.iq.FU_type_0::IprAccess            0      0.00%    100.00% # Type of FU issued
system.switch_cpus1.iq.FU_type_0::InstPrefetch            0      0.00%    100.00% # Type of FU issued
system.switch_cpus1.iq.FU_type_0::total      13650524                       # Type of FU issued
system.switch_cpus1.iq.rate                  1.726387                       # Inst issue rate
system.switch_cpus1.iq.fu_busy_cnt             112818                       # FU busy when requested
system.switch_cpus1.iq.fu_busy_rate          0.008265                       # FU busy rate (busy events/executed inst)
system.switch_cpus1.iq.int_inst_queue_reads     35205799                       # Number of integer instruction queue reads
system.switch_cpus1.iq.int_inst_queue_writes     23176904                       # Number of integer instruction queue writes
system.switch_cpus1.iq.int_inst_queue_wakeup_accesses     13299811                       # Number of integer instruction queue wakeup accesses
system.switch_cpus1.iq.fp_inst_queue_reads            0                       # Number of floating instruction queue reads
system.switch_cpus1.iq.fp_inst_queue_writes            0                       # Number of floating instruction queue writes
system.switch_cpus1.iq.fp_inst_queue_wakeup_accesses            0                       # Number of floating instruction queue wakeup accesses
system.switch_cpus1.iq.int_alu_accesses      13763342                       # Number of integer alu accesses
system.switch_cpus1.iq.fp_alu_accesses              0                       # Number of floating point alu accesses
system.switch_cpus1.iew.lsq.thread0.forwLoads        50806                       # Number of loads that had data forwarded from stores
system.switch_cpus1.iew.lsq.thread0.invAddrLoads            0                       # Number of loads ignored due to an invalid address
system.switch_cpus1.iew.lsq.thread0.squashedLoads       674741                       # Number of loads squashed
system.switch_cpus1.iew.lsq.thread0.ignoredResponses          287                       # Number of memory responses ignored because the instruction is squashed
system.switch_cpus1.iew.lsq.thread0.memOrderViolation           65                       # Number of memory ordering violations
system.switch_cpus1.iew.lsq.thread0.squashedStores       224503                       # Number of stores squashed
system.switch_cpus1.iew.lsq.thread0.invAddrSwpfs            0                       # Number of software prefetches ignored due to an invalid address
system.switch_cpus1.iew.lsq.thread0.blockedLoads            0                       # Number of blocked loads due to partial load-store forwarding
system.switch_cpus1.iew.lsq.thread0.rescheduledLoads            0                       # Number of loads that were rescheduled
system.switch_cpus1.iew.lsq.thread0.cacheBlocked            0                       # Number of times an access to memory failed due to the cache being blocked
system.switch_cpus1.iew.iewIdleCycles               0                       # Number of cycles IEW is idle
system.switch_cpus1.iew.iewSquashCycles        843493                       # Number of cycles IEW is squashing
system.switch_cpus1.iew.iewBlockCycles          51953                       # Number of cycles IEW is blocking
system.switch_cpus1.iew.iewUnblockCycles         7385                       # Number of cycles IEW is unblocking
system.switch_cpus1.iew.iewDispatchedInsts     17208356                       # Number of instructions dispatched to IQ
system.switch_cpus1.iew.iewDispSquashedInsts        38181                       # Number of squashed instructions skipped by dispatch
system.switch_cpus1.iew.iewDispLoadInsts      1700158                       # Number of dispatched load instructions
system.switch_cpus1.iew.iewDispStoreInsts       865733                       # Number of dispatched store instructions
system.switch_cpus1.iew.iewDispNonSpecInsts         2121                       # Number of dispatched non-speculative instructions
system.switch_cpus1.iew.iewIQFullEvents          6557                       # Number of times the IQ has become full, causing a stall
system.switch_cpus1.iew.iewLSQFullEvents            0                       # Number of times the LSQ has become full, causing a stall
system.switch_cpus1.iew.memOrderViolationEvents           65                       # Number of memory order violations
system.switch_cpus1.iew.predictedTakenIncorrect       116208                       # Number of branches that were predicted taken incorrectly
system.switch_cpus1.iew.predictedNotTakenIncorrect       110800                       # Number of branches that were predicted not taken incorrectly
system.switch_cpus1.iew.branchMispredicts       227008                       # Number of branch mispredicts detected at execute
system.switch_cpus1.iew.iewExecutedInsts     13431715                       # Number of executed instructions
system.switch_cpus1.iew.iewExecLoadInsts      1272885                       # Number of load instructions executed
system.switch_cpus1.iew.iewExecSquashedInsts       218805                       # Number of squashed instructions skipped in execute
system.switch_cpus1.iew.exec_swp                    0                       # number of swp insts executed
system.switch_cpus1.iew.exec_nop                    1                       # number of nop insts executed
system.switch_cpus1.iew.exec_refs             1979795                       # number of memory reference insts executed
system.switch_cpus1.iew.exec_branches         1894085                       # Number of branches executed
system.switch_cpus1.iew.exec_stores            706910                       # Number of stores executed
system.switch_cpus1.iew.exec_rate            1.698714                       # Inst execution rate
system.switch_cpus1.iew.wb_sent              13308855                       # cumulative count of insts sent to commit
system.switch_cpus1.iew.wb_count             13299811                       # cumulative count of insts written-back
system.switch_cpus1.iew.wb_producers          8663846                       # num instructions producing a value
system.switch_cpus1.iew.wb_consumers         24468363                       # num instructions consuming a value
system.switch_cpus1.iew.wb_penalized                0                       # number of instrctions required to write to 'other' IQ
system.switch_cpus1.iew.wb_rate              1.682032                       # insts written-back per cycle
system.switch_cpus1.iew.wb_fanout            0.354084                       # average fanout of values written-back
system.switch_cpus1.iew.wb_penalized_rate            0                       # fraction of instructions written-back that wrote to 'other' IQ
system.switch_cpus1.commit.commitCommittedInsts      9127340                       # The number of committed instructions
system.switch_cpus1.commit.commitCommittedOps     11209247                       # The number of committed instructions
system.switch_cpus1.commit.commitSquashedInsts      5999208                       # The number of squashed insts skipped by commit
system.switch_cpus1.commit.commitNonSpecStalls         3020                       # The number of times commit has been forced to stall to communicate backwards
system.switch_cpus1.commit.branchMispredicts       195989                       # The number of times a branch was mispredicted
[...]
system.cpu3.icache.ReadReq_miss_latency::switch_cpus3.inst      1018271                       # number of ReadReq miss cycles
system.cpu3.icache.ReadReq_miss_latency::total      1018271                       # number of ReadReq miss cycles
system.cpu3.icache.demand_miss_latency::switch_cpus3.inst      1018271                       # number of demand (read+write) miss cycles
system.cpu3.icache.demand_miss_latency::total      1018271                       # number of demand (read+write) miss cycles
system.cpu3.icache.overall_miss_latency::switch_cpus3.inst      1018271                       # number of overall miss cycles
system.cpu3.icache.overall_miss_latency::total      1018271                       # number of overall miss cycles
system.cpu3.icache.ReadReq_accesses::switch_cpus3.inst      1498306                       # number of ReadReq accesses(hits+misses)
system.cpu3.icache.ReadReq_accesses::total      1498306                       # number of ReadReq accesses(hits+misses)
system.cpu3.icache.demand_accesses::switch_cpus3.inst      1498306                       # number of demand (read+write) accesses
system.cpu3.icache.demand_accesses::total      1498306                       # number of demand (read+write) accesses
system.cpu3.icache.overall_accesses::switch_cpus3.inst      1498306                       # number of overall (read+write) accesses
system.cpu3.icache.overall_accesses::total      1498306                       # number of overall (read+write) accesses
system.cpu3.icache.ReadReq_miss_rate::switch_cpus3.inst     0.000013                       # miss rate for ReadReq accesses
system.cpu3.icache.ReadReq_miss_rate::total     0.000013                       # miss rate for ReadReq accesses
system.cpu3.icache.demand_miss_rate::switch_cpus3.inst     0.000013                       # miss rate for demand accesses
system.cpu3.icache.demand_miss_rate::total     0.000013                       # miss rate for demand accesses
system.cpu3.icache.overall_miss_rate::switch_cpus3.inst     0.000013                       # miss rate for overall accesses
system.cpu3.icache.overall_miss_rate::total     0.000013                       # miss rate for overall accesses
system.cpu3.icache.ReadReq_avg_miss_latency::switch_cpus3.inst 53593.210526                       # average ReadReq miss latency
system.cpu3.icache.ReadReq_avg_miss_latency::total 53593.210526                       # average ReadReq miss latency
system.cpu3.icache.demand_avg_miss_latency::switch_cpus3.inst 53593.210526                       # average overall miss latency
system.cpu3.icache.demand_avg_miss_latency::total 53593.210526                       # average overall miss latency
system.cpu3.icache.overall_avg_miss_latency::switch_cpus3.inst 53593.210526                       # average overall miss latency
system.cpu3.icache.overall_avg_miss_latency::total 53593.210526                       # average overall miss latency
system.cpu3.icache.blocked_cycles::no_mshrs            0                       # number of cycles access was blocked
system.cpu3.icache.blocked_cycles::no_targets            0                       # number of cycles access was blocked
system.cpu3.icache.blocked::no_mshrs                0                       # number of cycles access was blocked
system.cpu3.icache.blocked::no_targets              0                       # number of cycles access was blocked
system.cpu3.icache.avg_blocked_cycles::no_mshrs          nan                       # average number of cycles each access was blocked
system.cpu3.icache.avg_blocked_cycles::no_targets          nan                       # average number of cycles each access was blocked
system.cpu3.icache.fast_writes                      0                       # number of fast writes performed
system.cpu3.icache.cache_copies                     0                       # number of cache copies performed
system.cpu3.icache.ReadReq_mshr_hits::switch_cpus3.inst            3                       # number of ReadReq MSHR hits
system.cpu3.icache.ReadReq_mshr_hits::total            3                       # number of ReadReq MSHR hits
system.cpu3.icache.demand_mshr_hits::switch_cpus3.inst            3                       # number of demand (read+write) MSHR hits
system.cpu3.icache.demand_mshr_hits::total            3                       # number of demand (read+write) MSHR hits
system.cpu3.icache.overall_mshr_hits::switch_cpus3.inst            3                       # number of overall MSHR hits
system.cpu3.icache.overall_mshr_hits::total            3                       # number of overall MSHR hits
system.cpu3.icache.ReadReq_mshr_misses::switch_cpus3.inst           16                       # number of ReadReq MSHR misses
system.cpu3.icache.ReadReq_mshr_misses::total           16                       # number of ReadReq MSHR misses
system.cpu3.icache.demand_mshr_misses::switch_cpus3.inst           16                       # number of demand (read+write) MSHR misses
system.cpu3.icache.demand_mshr_misses::total           16                       # number of demand (read+write) MSHR misses
system.cpu3.icache.overall_mshr_misses::switch_cpus3.inst           16                       # number of overall MSHR misses
system.cpu3.icache.overall_mshr_misses::total           16                       # number of overall MSHR misses
system.cpu3.icache.ReadReq_mshr_miss_latency::switch_cpus3.inst       814502                       # number of ReadReq MSHR miss cycles
system.cpu3.icache.ReadReq_mshr_miss_latency::total       814502                       # number of ReadReq MSHR miss cycles
system.cpu3.icache.demand_mshr_miss_latency::switch_cpus3.inst       814502                       # number of demand (read+write) MSHR miss cycles
system.cpu3.icache.demand_mshr_miss_latency::total       814502                       # number of demand (read+write) MSHR miss cycles
system.cpu3.icache.overall_mshr_miss_latency::switch_cpus3.inst       814502                       # number of overall MSHR miss cycles
system.cpu3.icache.overall_mshr_miss_latency::total       814502                       # number of overall MSHR miss cycles
system.cpu3.icache.ReadReq_mshr_miss_rate::switch_cpus3.inst     0.000011                       # mshr miss rate for ReadReq accesses
system.cpu3.icache.ReadReq_mshr_miss_rate::total     0.000011                       # mshr miss rate for ReadReq accesses
system.cpu3.icache.demand_mshr_miss_rate::switch_cpus3.inst     0.000011                       # mshr miss rate for demand accesses
system.cpu3.icache.demand_mshr_miss_rate::total     0.000011                       # mshr miss rate for demand accesses
system.cpu3.icache.overall_mshr_miss_rate::switch_cpus3.inst     0.000011                       # mshr miss rate for overall accesses
system.cpu3.icache.overall_mshr_miss_rate::total     0.000011                       # mshr miss rate for overall accesses
system.cpu3.icache.ReadReq_avg_mshr_miss_latency::switch_cpus3.inst 50906.375000                       # average ReadReq mshr miss latency
system.cpu3.icache.ReadReq_avg_mshr_miss_latency::total 50906.375000                       # average ReadReq mshr miss latency
system.cpu3.icache.demand_avg_mshr_miss_latency::switch_cpus3.inst 50906.375000                       # average overall mshr miss latency
system.cpu3.icache.demand_avg_mshr_miss_latency::total 50906.375000                       # average overall mshr miss latency
system.cpu3.icache.overall_avg_mshr_miss_latency::switch_cpus3.inst 50906.375000                       # average overall mshr miss latency
system.cpu3.icache.overall_avg_mshr_miss_latency::total 50906.375000                       # average overall mshr miss latency
system.cpu3.icache.no_allocate_misses               0                       # Number of misses that were no-allocate
system.cpu3.dcache.replacements                  3113                       # number of replacements
system.cpu3.dcache.tagsinuse                      256                       # Cycle average of tags in use
system.cpu3.dcache.total_refs               161228227                       # Total number of references to valid blocks.
system.cpu3.dcache.sampled_refs                  3369                       # Sample count of references to valid blocks.
system.cpu3.dcache.avg_refs              47856.404571                       # Average number of references to valid blocks.
system.cpu3.dcache.warmup_cycle                     0                       # Cycle when the warmup percentage was hit.
system.cpu3.dcache.occ_blocks::switch_cpus3.data   212.665007                       # Average occupied blocks per requestor
system.cpu3.dcache.occ_blocks::cpu3.data    43.334993                       # Average occupied blocks per requestor
system.cpu3.dcache.occ_percent::switch_cpus3.data     0.830723                       # Average percentage of cache occupancy
system.cpu3.dcache.occ_percent::cpu3.data     0.169277                       # Average percentage of cache occupancy
system.cpu3.dcache.occ_percent::total               1                       # Average percentage of cache occupancy
system.cpu3.dcache.ReadReq_hits::switch_cpus3.data       974414                       # number of ReadReq hits
system.cpu3.dcache.ReadReq_hits::total         974414                       # number of ReadReq hits
system.cpu3.dcache.WriteReq_hits::switch_cpus3.data       664928                       # number of WriteReq hits
system.cpu3.dcache.WriteReq_hits::total        664928                       # number of WriteReq hits
system.cpu3.dcache.LoadLockedReq_hits::switch_cpus3.data         1610                       # number of LoadLockedReq hits
system.cpu3.dcache.LoadLockedReq_hits::total         1610                       # number of LoadLockedReq hits
system.cpu3.dcache.StoreCondReq_hits::switch_cpus3.data         1606                       # number of StoreCondReq hits
system.cpu3.dcache.StoreCondReq_hits::total         1606                       # number of StoreCondReq hits
system.cpu3.dcache.demand_hits::switch_cpus3.data      1639342                       # number of demand (read+write) hits
system.cpu3.dcache.demand_hits::total         1639342                       # number of demand (read+write) hits
system.cpu3.dcache.overall_hits::switch_cpus3.data      1639342                       # number of overall hits
system.cpu3.dcache.overall_hits::total        1639342                       # number of overall hits
system.cpu3.dcache.ReadReq_misses::switch_cpus3.data         6404                       # number of ReadReq misses
system.cpu3.dcache.ReadReq_misses::total         6404                       # number of ReadReq misses
system.cpu3.dcache.demand_misses::switch_cpus3.data         6404                       # number of demand (read+write) misses
system.cpu3.dcache.demand_misses::total          6404                       # number of demand (read+write) misses
system.cpu3.dcache.overall_misses::switch_cpus3.data         6404                       # number of overall misses
system.cpu3.dcache.overall_misses::total         6404                       # number of overall misses
system.cpu3.dcache.ReadReq_miss_latency::switch_cpus3.data    187365197                       # number of ReadReq miss cycles
system.cpu3.dcache.ReadReq_miss_latency::total    187365197                       # number of ReadReq miss cycles
system.cpu3.dcache.demand_miss_latency::switch_cpus3.data    187365197                       # number of demand (read+write) miss cycles
system.cpu3.dcache.demand_miss_latency::total    187365197                       # number of demand (read+write) miss cycles
system.cpu3.dcache.overall_miss_latency::switch_cpus3.data    187365197                       # number of overall miss cycles
system.cpu3.dcache.overall_miss_latency::total    187365197                       # number of overall miss cycles
system.cpu3.dcache.ReadReq_accesses::switch_cpus3.data       980818                       # number of ReadReq accesses(hits+misses)
system.cpu3.dcache.ReadReq_accesses::total       980818                       # number of ReadReq accesses(hits+misses)
system.cpu3.dcache.WriteReq_accesses::switch_cpus3.data       664928                       # number of WriteReq accesses(hits+misses)
system.cpu3.dcache.WriteReq_accesses::total       664928                       # number of WriteReq accesses(hits+misses)
system.cpu3.dcache.LoadLockedReq_accesses::switch_cpus3.data         1610                       # number of LoadLockedReq accesses(hits+misses)
system.cpu3.dcache.LoadLockedReq_accesses::total         1610                       # number of LoadLockedReq accesses(hits+misses)
system.cpu3.dcache.StoreCondReq_accesses::switch_cpus3.data         1606                       # number of StoreCondReq accesses(hits+misses)
system.cpu3.dcache.StoreCondReq_accesses::total         1606                       # number of StoreCondReq accesses(hits+misses)
system.cpu3.dcache.demand_accesses::switch_cpus3.data      1645746                       # number of demand (read+write) accesses
system.cpu3.dcache.demand_accesses::total      1645746                       # number of demand (read+write) accesses
system.cpu3.dcache.overall_accesses::switch_cpus3.data      1645746                       # number of overall (read+write) accesses
system.cpu3.dcache.overall_accesses::total      1645746                       # number of overall (read+write) accesses
system.cpu3.dcache.ReadReq_miss_rate::switch_cpus3.data     0.006529                       # miss rate for ReadReq accesses
system.cpu3.dcache.ReadReq_miss_rate::total     0.006529                       # miss rate for ReadReq accesses
system.cpu3.dcache.demand_miss_rate::switch_cpus3.data     0.003891                       # miss rate for demand accesses
system.cpu3.dcache.demand_miss_rate::total     0.003891                       # miss rate for demand accesses
system.cpu3.dcache.overall_miss_rate::switch_cpus3.data     0.003891                       # miss rate for overall accesses
system.cpu3.dcache.overall_miss_rate::total     0.003891                       # miss rate for overall accesses
system.cpu3.dcache.ReadReq_avg_miss_latency::switch_cpus3.data 29257.526077                       # average ReadReq miss latency
system.cpu3.dcache.ReadReq_avg_miss_latency::total 29257.526077                       # average ReadReq miss latency
system.cpu3.dcache.demand_avg_miss_latency::switch_cpus3.data 29257.526077                       # average overall miss latency
system.cpu3.dcache.demand_avg_miss_latency::total 29257.526077                       # average overall miss latency
system.cpu3.dcache.overall_avg_miss_latency::switch_cpus3.data 29257.526077                       # average overall miss latency
system.cpu3.dcache.overall_avg_miss_latency::total 29257.526077                       # average overall miss latency
system.cpu3.dcache.blocked_cycles::no_mshrs            0                       # number of cycles access was blocked
system.cpu3.dcache.blocked_cycles::no_targets            0                       # number of cycles access was blocked
system.cpu3.dcache.blocked::no_mshrs                0                       # number of cycles access was blocked
system.cpu3.dcache.blocked::no_targets              0                       # number of cycles access was blocked
system.cpu3.dcache.avg_blocked_cycles::no_mshrs          nan                       # average number of cycles each access was blocked
system.cpu3.dcache.avg_blocked_cycles::no_targets          nan                       # average number of cycles each access was blocked
system.cpu3.dcache.fast_writes                      0                       # number of fast writes performed
system.cpu3.dcache.cache_copies                     0                       # number of cache copies performed
system.cpu3.dcache.writebacks::writebacks          744                       # number of writebacks
system.cpu3.dcache.writebacks::total              744                       # number of writebacks
system.cpu3.dcache.ReadReq_mshr_hits::switch_cpus3.data         3291                       # number of ReadReq MSHR hits
system.cpu3.dcache.ReadReq_mshr_hits::total         3291                       # number of ReadReq MSHR hits
system.cpu3.dcache.demand_mshr_hits::switch_cpus3.data         3291                       # number of demand (read+write) MSHR hits
system.cpu3.dcache.demand_mshr_hits::total         3291                       # number of demand (read+write) MSHR hits
system.cpu3.dcache.overall_mshr_hits::switch_cpus3.data         3291                       # number of overall MSHR hits
system.cpu3.dcache.overall_mshr_hits::total         3291                       # number of overall MSHR hits
system.cpu3.dcache.ReadReq_mshr_misses::switch_cpus3.data         3113                       # number of ReadReq MSHR misses
system.cpu3.dcache.ReadReq_mshr_misses::total         3113                       # number of ReadReq MSHR misses
system.cpu3.dcache.demand_mshr_misses::switch_cpus3.data         3113                       # number of demand (read+write) MSHR misses
system.cpu3.dcache.demand_mshr_misses::total         3113                       # number of demand (read+write) MSHR misses
system.cpu3.dcache.overall_mshr_misses::switch_cpus3.data         3113                       # number of overall MSHR misses
system.cpu3.dcache.overall_mshr_misses::total         3113                       # number of overall MSHR misses
system.cpu3.dcache.ReadReq_mshr_miss_latency::switch_cpus3.data     56704845                       # number of ReadReq MSHR miss cycles
system.cpu3.dcache.ReadReq_mshr_miss_latency::total     56704845                       # number of ReadReq MSHR miss cycles
system.cpu3.dcache.demand_mshr_miss_latency::switch_cpus3.data     56704845                       # number of demand (read+write) MSHR miss cycles
system.cpu3.dcache.demand_mshr_miss_latency::total     56704845                       # number of demand (read+write) MSHR miss cycles
system.cpu3.dcache.overall_mshr_miss_latency::switch_cpus3.data     56704845                       # number of overall MSHR miss cycles
system.cpu3.dcache.overall_mshr_miss_latency::total     56704845                       # number of overall MSHR miss cycles
system.cpu3.dcache.ReadReq_mshr_miss_rate::switch_cpus3.data     0.003174                       # mshr miss rate for ReadReq accesses
system.cpu3.dcache.ReadReq_mshr_miss_rate::total     0.003174                       # mshr miss rate for ReadReq accesses
system.cpu3.dcache.demand_mshr_miss_rate::switch_cpus3.data     0.001892                       # mshr miss rate for demand accesses
system.cpu3.dcache.demand_mshr_miss_rate::total     0.001892                       # mshr miss rate for demand accesses
system.cpu3.dcache.overall_mshr_miss_rate::switch_cpus3.data     0.001892                       # mshr miss rate for overall accesses
system.cpu3.dcache.overall_mshr_miss_rate::total     0.001892                       # mshr miss rate for overall accesses
system.cpu3.dcache.ReadReq_avg_mshr_miss_latency::switch_cpus3.data 18215.497912                       # average ReadReq mshr miss latency
system.cpu3.dcache.ReadReq_avg_mshr_miss_latency::total 18215.497912                       # average ReadReq mshr miss latency
system.cpu3.dcache.demand_avg_mshr_miss_latency::switch_cpus3.data 18215.497912                       # average overall mshr miss latency
system.cpu3.dcache.demand_avg_mshr_miss_latency::total 18215.497912                       # average overall mshr miss latency
system.cpu3.dcache.overall_avg_mshr_miss_latency::switch_cpus3.data 18215.497912                       # average overall mshr miss latency
system.cpu3.dcache.overall_avg_mshr_miss_latency::total 18215.497912                       # average overall mshr miss latency
system.cpu3.dcache.no_allocate_misses               0                       # Number of misses that were no-allocate

---------- End Simulation Statistics   ----------
