
---------- Begin Simulation Statistics ----------
sim_seconds                                  0.106618                       # Number of seconds simulated
sim_ticks                                106617717243                       # Number of ticks simulated
final_tick                               631445310780                       # Number of ticks from beginning of simulation (restored from checkpoints and never reset)
sim_freq                                 1000000000000                       # Frequency of simulated ticks
host_inst_rate                                 309435                       # Simulator instruction rate (inst/s)
host_op_rate                                   394183                       # Simulator op (including micro ops) rate (op/s)
host_tick_rate                                1904682                       # Simulator tick rate (ticks/s)
host_mem_usage                               67619596                       # Number of bytes of host memory used
host_seconds                                 55976.64                       # Real time elapsed on the host
sim_insts                                 17321124990                       # Number of instructions simulated
sim_ops                                   22065061466                       # Number of ops (including micro ops) simulated
system.physmem.bytes_read::switch_cpus00.inst         5120                       # Number of bytes read from this memory
system.physmem.bytes_read::switch_cpus00.data      3708288                       # Number of bytes read from this memory
system.physmem.bytes_read::switch_cpus01.inst         4992                       # Number of bytes read from this memory
system.physmem.bytes_read::switch_cpus01.data      4155008                       # Number of bytes read from this memory
system.physmem.bytes_read::switch_cpus02.inst         4992                       # Number of bytes read from this memory
system.physmem.bytes_read::switch_cpus02.data      4196608                       # Number of bytes read from this memory
system.physmem.bytes_read::switch_cpus03.inst         4352                       # Number of bytes read from this memory
system.physmem.bytes_read::switch_cpus03.data      2587392                       # Number of bytes read from this memory
system.physmem.bytes_read::switch_cpus04.inst         4864                       # Number of bytes read from this memory
system.physmem.bytes_read::switch_cpus04.data      2589824                       # Number of bytes read from this memory
system.physmem.bytes_read::switch_cpus05.inst         5248                       # Number of bytes read from this memory
system.physmem.bytes_read::switch_cpus05.data      4206080                       # Number of bytes read from this memory
system.physmem.bytes_read::switch_cpus06.inst         5120                       # Number of bytes read from this memory
system.physmem.bytes_read::switch_cpus06.data      1500544                       # Number of bytes read from this memory
system.physmem.bytes_read::switch_cpus07.inst         4992                       # Number of bytes read from this memory
system.physmem.bytes_read::switch_cpus07.data      2605440                       # Number of bytes read from this memory
system.physmem.bytes_read::switch_cpus08.inst         4480                       # Number of bytes read from this memory
system.physmem.bytes_read::switch_cpus08.data      1478912                       # Number of bytes read from this memory
system.physmem.bytes_read::switch_cpus09.inst         4352                       # Number of bytes read from this memory
system.physmem.bytes_read::switch_cpus09.data      2601600                       # Number of bytes read from this memory
system.physmem.bytes_read::switch_cpus10.inst         4864                       # Number of bytes read from this memory
system.physmem.bytes_read::switch_cpus10.data      3815808                       # Number of bytes read from this memory
system.physmem.bytes_read::switch_cpus11.inst         4736                       # Number of bytes read from this memory
system.physmem.bytes_read::switch_cpus11.data      1461248                       # Number of bytes read from this memory
system.physmem.bytes_read::switch_cpus12.inst         5248                       # Number of bytes read from this memory
system.physmem.bytes_read::switch_cpus12.data      1897216                       # Number of bytes read from this memory
system.physmem.bytes_read::switch_cpus13.inst         4352                       # Number of bytes read from this memory
system.physmem.bytes_read::switch_cpus13.data      2589952                       # Number of bytes read from this memory
system.physmem.bytes_read::switch_cpus14.inst         4864                       # Number of bytes read from this memory
system.physmem.bytes_read::switch_cpus14.data      3835264                       # Number of bytes read from this memory
system.physmem.bytes_read::switch_cpus15.inst         4352                       # Number of bytes read from this memory
system.physmem.bytes_read::switch_cpus15.data      2599040                       # Number of bytes read from this memory
system.physmem.bytes_read::total             45905152                       # Number of bytes read from this memory
system.physmem.bytes_inst_read::switch_cpus00.inst         5120                       # Number of instructions bytes read from this memory
system.physmem.bytes_inst_read::switch_cpus01.inst         4992                       # Number of instructions bytes read from this memory
system.physmem.bytes_inst_read::switch_cpus02.inst         4992                       # Number of instructions bytes read from this memory
system.physmem.bytes_inst_read::switch_cpus03.inst         4352                       # Number of instructions bytes read from this memory
system.physmem.bytes_inst_read::switch_cpus04.inst         4864                       # Number of instructions bytes read from this memory
system.physmem.bytes_inst_read::switch_cpus05.inst         5248                       # Number of instructions bytes read from this memory
system.physmem.bytes_inst_read::switch_cpus06.inst         5120                       # Number of instructions bytes read from this memory
system.physmem.bytes_inst_read::switch_cpus07.inst         4992                       # Number of instructions bytes read from this memory
system.physmem.bytes_inst_read::switch_cpus08.inst         4480                       # Number of instructions bytes read from this memory
system.physmem.bytes_inst_read::switch_cpus09.inst         4352                       # Number of instructions bytes read from this memory
system.physmem.bytes_inst_read::switch_cpus10.inst         4864                       # Number of instructions bytes read from this memory
system.physmem.bytes_inst_read::switch_cpus11.inst         4736                       # Number of instructions bytes read from this memory
system.physmem.bytes_inst_read::switch_cpus12.inst         5248                       # Number of instructions bytes read from this memory
system.physmem.bytes_inst_read::switch_cpus13.inst         4352                       # Number of instructions bytes read from this memory
system.physmem.bytes_inst_read::switch_cpus14.inst         4864                       # Number of instructions bytes read from this memory
system.physmem.bytes_inst_read::switch_cpus15.inst         4352                       # Number of instructions bytes read from this memory
system.physmem.bytes_inst_read::total           76928                       # Number of instructions bytes read from this memory
system.physmem.bytes_written::writebacks     10748672                       # Number of bytes written to this memory
system.physmem.bytes_written::total          10748672                       # Number of bytes written to this memory
system.physmem.num_reads::switch_cpus00.inst           40                       # Number of read requests responded to by this memory
system.physmem.num_reads::switch_cpus00.data        28971                       # Number of read requests responded to by this memory
system.physmem.num_reads::switch_cpus01.inst           39                       # Number of read requests responded to by this memory
system.physmem.num_reads::switch_cpus01.data        32461                       # Number of read requests responded to by this memory
system.physmem.num_reads::switch_cpus02.inst           39                       # Number of read requests responded to by this memory
system.physmem.num_reads::switch_cpus02.data        32786                       # Number of read requests responded to by this memory
system.physmem.num_reads::switch_cpus03.inst           34                       # Number of read requests responded to by this memory
system.physmem.num_reads::switch_cpus03.data        20214                       # Number of read requests responded to by this memory
system.physmem.num_reads::switch_cpus04.inst           38                       # Number of read requests responded to by this memory
system.physmem.num_reads::switch_cpus04.data        20233                       # Number of read requests responded to by this memory
system.physmem.num_reads::switch_cpus05.inst           41                       # Number of read requests responded to by this memory
system.physmem.num_reads::switch_cpus05.data        32860                       # Number of read requests responded to by this memory
system.physmem.num_reads::switch_cpus06.inst           40                       # Number of read requests responded to by this memory
system.physmem.num_reads::switch_cpus06.data        11723                       # Number of read requests responded to by this memory
system.physmem.num_reads::switch_cpus07.inst           39                       # Number of read requests responded to by this memory
system.physmem.num_reads::switch_cpus07.data        20355                       # Number of read requests responded to by this memory
system.physmem.num_reads::switch_cpus08.inst           35                       # Number of read requests responded to by this memory
system.physmem.num_reads::switch_cpus08.data        11554                       # Number of read requests responded to by this memory
system.physmem.num_reads::switch_cpus09.inst           34                       # Number of read requests responded to by this memory
system.physmem.num_reads::switch_cpus09.data        20325                       # Number of read requests responded to by this memory
system.physmem.num_reads::switch_cpus10.inst           38                       # Number of read requests responded to by this memory
system.physmem.num_reads::switch_cpus10.data        29811                       # Number of read requests responded to by this memory
system.physmem.num_reads::switch_cpus11.inst           37                       # Number of read requests responded to by this memory
system.physmem.num_reads::switch_cpus11.data        11416                       # Number of read requests responded to by this memory
system.physmem.num_reads::switch_cpus12.inst           41                       # Number of read requests responded to by this memory
system.physmem.num_reads::switch_cpus12.data        14822                       # Number of read requests responded to by this memory
system.physmem.num_reads::switch_cpus13.inst           34                       # Number of read requests responded to by this memory
system.physmem.num_reads::switch_cpus13.data        20234                       # Number of read requests responded to by this memory
system.physmem.num_reads::switch_cpus14.inst           38                       # Number of read requests responded to by this memory
system.physmem.num_reads::switch_cpus14.data        29963                       # Number of read requests responded to by this memory
system.physmem.num_reads::switch_cpus15.inst           34                       # Number of read requests responded to by this memory
system.physmem.num_reads::switch_cpus15.data        20305                       # Number of read requests responded to by this memory
system.physmem.num_reads::total                358634                       # Number of read requests responded to by this memory
system.physmem.num_writes::writebacks           83974                       # Number of write requests responded to by this memory
system.physmem.num_writes::functional               0                       # Number of write requests responded to by this memory
system.physmem.num_writes::interrupt                0                       # Number of write requests responded to by this memory
system.physmem.num_writes::switch_cpus00.dtb.walker            0                       # Number of write requests responded to by this memory
system.physmem.num_writes::switch_cpus00.itb.walker            0                       # Number of write requests responded to by this memory
system.physmem.num_writes::switch_cpus00.inst            0                       # Number of write requests responded to by this memory
system.physmem.num_writes::switch_cpus00.data            0                       # Number of write requests responded to by this memory
system.physmem.num_writes::switch_cpus01.dtb.walker            0                       # Number of write requests responded to by this memory
system.physmem.num_writes::switch_cpus01.itb.walker            0                       # Number of write requests responded to by this memory
system.physmem.num_writes::switch_cpus01.inst            0                       # Number of write requests responded to by this memory
system.physmem.num_writes::switch_cpus01.data            0                       # Number of write requests responded to by this memory
system.physmem.num_writes::switch_cpus02.dtb.walker            0                       # Number of write requests responded to by this memory
system.physmem.num_writes::switch_cpus02.itb.walker            0                       # Number of write requests responded to by this memory
system.physmem.num_writes::switch_cpus02.inst            0                       # Number of write requests responded to by this memory
system.physmem.num_writes::switch_cpus02.data            0                       # Number of write requests responded to by this memory
system.physmem.num_writes::switch_cpus03.dtb.walker            0                       # Number of write requests responded to by this memory
system.physmem.num_writes::switch_cpus03.itb.walker            0                       # Number of write requests responded to by this memory
system.physmem.num_writes::switch_cpus03.inst            0                       # Number of write requests responded to by this memory
system.physmem.num_writes::switch_cpus03.data            0                       # Number of write requests responded to by this memory
system.physmem.num_writes::switch_cpus04.dtb.walker            0                       # Number of write requests responded to by this memory
system.physmem.num_writes::switch_cpus04.itb.walker            0                       # Number of write requests responded to by this memory
system.physmem.num_writes::switch_cpus04.inst            0                       # Number of write requests responded to by this memory
system.physmem.num_writes::switch_cpus04.data            0                       # Number of write requests responded to by this memory
system.physmem.num_writes::switch_cpus05.dtb.walker            0                       # Number of write requests responded to by this memory
system.physmem.num_writes::switch_cpus05.itb.walker            0                       # Number of write requests responded to by this memory
system.physmem.num_writes::switch_cpus05.inst            0                       # Number of write requests responded to by this memory
system.physmem.num_writes::switch_cpus05.data            0                       # Number of write requests responded to by this memory
system.physmem.num_writes::switch_cpus06.dtb.walker            0                       # Number of write requests responded to by this memory
system.physmem.num_writes::switch_cpus06.itb.walker            0                       # Number of write requests responded to by this memory
system.physmem.num_writes::switch_cpus06.inst            0                       # Number of write requests responded to by this memory
system.physmem.num_writes::switch_cpus06.data            0                       # Number of write requests responded to by this memory
system.physmem.num_writes::switch_cpus07.dtb.walker            0                       # Number of write requests responded to by this memory
system.physmem.num_writes::switch_cpus07.itb.walker            0                       # Number of write requests responded to by this memory
system.physmem.num_writes::switch_cpus07.inst            0                       # Number of write requests responded to by this memory
system.physmem.num_writes::switch_cpus07.data            0                       # Number of write requests responded to by this memory
system.physmem.num_writes::switch_cpus08.dtb.walker            0                       # Number of write requests responded to by this memory
system.physmem.num_writes::switch_cpus08.itb.walker            0                       # Number of write requests responded to by this memory
system.physmem.num_writes::switch_cpus08.inst            0                       # Number of write requests responded to by this memory
system.physmem.num_writes::switch_cpus08.data            0                       # Number of write requests responded to by this memory
system.physmem.num_writes::switch_cpus09.dtb.walker            0                       # Number of write requests responded to by this memory
system.physmem.num_writes::switch_cpus09.itb.walker            0                       # Number of write requests responded to by this memory
system.physmem.num_writes::switch_cpus09.inst            0                       # Number of write requests responded to by this memory
system.physmem.num_writes::switch_cpus09.data            0                       # Number of write requests responded to by this memory
system.physmem.num_writes::switch_cpus10.dtb.walker            0                       # Number of write requests responded to by this memory
system.physmem.num_writes::switch_cpus10.itb.walker            0                       # Number of write requests responded to by this memory
system.physmem.num_writes::switch_cpus10.inst            0                       # Number of write requests responded to by this memory
system.physmem.num_writes::switch_cpus10.data            0                       # Number of write requests responded to by this memory
system.physmem.num_writes::switch_cpus11.dtb.walker            0                       # Number of write requests responded to by this memory
system.physmem.num_writes::switch_cpus11.itb.walker            0                       # Number of write requests responded to by this memory
system.physmem.num_writes::switch_cpus11.inst            0                       # Number of write requests responded to by this memory
system.physmem.num_writes::switch_cpus11.data            0                       # Number of write requests responded to by this memory
system.physmem.num_writes::switch_cpus12.dtb.walker            0                       # Number of write requests responded to by this memory
system.physmem.num_writes::switch_cpus12.itb.walker            0                       # Number of write requests responded to by this memory
system.physmem.num_writes::switch_cpus12.inst            0                       # Number of write requests responded to by this memory
system.physmem.num_writes::switch_cpus12.data            0                       # Number of write requests responded to by this memory
system.physmem.num_writes::switch_cpus13.dtb.walker            0                       # Number of write requests responded to by this memory
system.physmem.num_writes::switch_cpus13.itb.walker            0                       # Number of write requests responded to by this memory
system.physmem.num_writes::switch_cpus13.inst            0                       # Number of write requests responded to by this memory
system.physmem.num_writes::switch_cpus13.data            0                       # Number of write requests responded to by this memory
system.physmem.num_writes::switch_cpus14.dtb.walker            0                       # Number of write requests responded to by this memory
system.physmem.num_writes::switch_cpus14.itb.walker            0                       # Number of write requests responded to by this memory
system.physmem.num_writes::switch_cpus14.inst            0                       # Number of write requests responded to by this memory
system.physmem.num_writes::switch_cpus14.data            0                       # Number of write requests responded to by this memory
system.physmem.num_writes::switch_cpus15.dtb.walker            0                       # Number of write requests responded to by this memory
system.physmem.num_writes::switch_cpus15.itb.walker            0                       # Number of write requests responded to by this memory
system.physmem.num_writes::switch_cpus15.inst            0                       # Number of write requests responded to by this memory
system.physmem.num_writes::switch_cpus15.data            0                       # Number of write requests responded to by this memory
system.physmem.num_writes::cpu00.dtb.walker            0                       # Number of write requests responded to by this memory
system.physmem.num_writes::cpu00.itb.walker            0                       # Number of write requests responded to by this memory
system.physmem.num_writes::cpu00.inst               0                       # Number of write requests responded to by this memory
system.physmem.num_writes::cpu00.data               0                       # Number of write requests responded to by this memory
system.physmem.num_writes::cpu01.dtb.walker            0                       # Number of write requests responded to by this memory
system.physmem.num_writes::cpu01.itb.walker            0                       # Number of write requests responded to by this memory
system.physmem.num_writes::cpu01.inst               0                       # Number of write requests responded to by this memory
system.physmem.num_writes::cpu01.data               0                       # Number of write requests responded to by this memory
system.physmem.num_writes::cpu02.dtb.walker            0                       # Number of write requests responded to by this memory
system.physmem.num_writes::cpu02.itb.walker            0                       # Number of write requests responded to by this memory
system.physmem.num_writes::cpu02.inst               0                       # Number of write requests responded to by this memory
system.physmem.num_writes::cpu02.data               0                       # Number of write requests responded to by this memory
system.physmem.num_writes::cpu03.dtb.walker            0                       # Number of write requests responded to by this memory
system.physmem.num_writes::cpu03.itb.walker            0                       # Number of write requests responded to by this memory
system.physmem.num_writes::cpu03.inst               0                       # Number of write requests responded to by this memory
system.physmem.num_writes::cpu03.data               0                       # Number of write requests responded to by this memory
system.physmem.num_writes::cpu04.dtb.walker            0                       # Number of write requests responded to by this memory
system.physmem.num_writes::cpu04.itb.walker            0                       # Number of write requests responded to by this memory
system.physmem.num_writes::cpu04.inst               0                       # Number of write requests responded to by this memory
system.physmem.num_writes::cpu04.data               0                       # Number of write requests responded to by this memory
system.physmem.num_writes::cpu05.dtb.walker            0                       # Number of write requests responded to by this memory
system.physmem.num_writes::cpu05.itb.walker            0                       # Number of write requests responded to by this memory
system.physmem.num_writes::cpu05.inst               0                       # Number of write requests responded to by this memory
system.physmem.num_writes::cpu05.data               0                       # Number of write requests responded to by this memory
system.physmem.num_writes::cpu06.dtb.walker            0                       # Number of write requests responded to by this memory
system.physmem.num_writes::cpu06.itb.walker            0                       # Number of write requests responded to by this memory
system.physmem.num_writes::cpu06.inst               0                       # Number of write requests responded to by this memory
system.physmem.num_writes::cpu06.data               0                       # Number of write requests responded to by this memory
system.physmem.num_writes::cpu07.dtb.walker            0                       # Number of write requests responded to by this memory
system.physmem.num_writes::cpu07.itb.walker            0                       # Number of write requests responded to by this memory
system.physmem.num_writes::cpu07.inst               0                       # Number of write requests responded to by this memory
system.physmem.num_writes::cpu07.data               0                       # Number of write requests responded to by this memory
system.physmem.num_writes::cpu08.dtb.walker            0                       # Number of write requests responded to by this memory
system.physmem.num_writes::cpu08.itb.walker            0                       # Number of write requests responded to by this memory
system.physmem.num_writes::cpu08.inst               0                       # Number of write requests responded to by this memory
system.physmem.num_writes::cpu08.data               0                       # Number of write requests responded to by this memory
system.physmem.num_writes::cpu09.dtb.walker            0                       # Number of write requests responded to by this memory
system.physmem.num_writes::cpu09.itb.walker            0                       # Number of write requests responded to by this memory
system.physmem.num_writes::cpu09.inst               0                       # Number of write requests responded to by this memory
system.physmem.num_writes::cpu09.data               0                       # Number of write requests responded to by this memory
system.physmem.num_writes::cpu10.dtb.walker            0                       # Number of write requests responded to by this memory
system.physmem.num_writes::cpu10.itb.walker            0                       # Number of write requests responded to by this memory
system.physmem.num_writes::cpu10.inst               0                       # Number of write requests responded to by this memory
system.physmem.num_writes::cpu10.data               0                       # Number of write requests responded to by this memory
system.physmem.num_writes::cpu11.dtb.walker            0                       # Number of write requests responded to by this memory
system.physmem.num_writes::cpu11.itb.walker            0                       # Number of write requests responded to by this memory
system.physmem.num_writes::cpu11.inst               0                       # Number of write requests responded to by this memory
system.physmem.num_writes::cpu11.data               0                       # Number of write requests responded to by this memory
system.physmem.num_writes::cpu12.dtb.walker            0                       # Number of write requests responded to by this memory
system.physmem.num_writes::cpu12.itb.walker            0                       # Number of write requests responded to by this memory
system.physmem.num_writes::cpu12.inst               0                       # Number of write requests responded to by this memory
system.physmem.num_writes::cpu12.data               0                       # Number of write requests responded to by this memory
system.physmem.num_writes::cpu13.dtb.walker            0                       # Number of write requests responded to by this memory
system.physmem.num_writes::cpu13.itb.walker            0                       # Number of write requests responded to by this memory
system.physmem.num_writes::cpu13.inst               0                       # Number of write requests responded to by this memory
system.physmem.num_writes::cpu13.data               0                       # Number of write requests responded to by this memory
system.physmem.num_writes::cpu14.dtb.walker            0                       # Number of write requests responded to by this memory
system.physmem.num_writes::cpu14.itb.walker            0                       # Number of write requests responded to by this memory
system.physmem.num_writes::cpu14.inst               0                       # Number of write requests responded to by this memory
system.physmem.num_writes::cpu14.data               0                       # Number of write requests responded to by this memory
system.physmem.num_writes::cpu15.dtb.walker            0                       # Number of write requests responded to by this memory
system.physmem.num_writes::cpu15.itb.walker            0                       # Number of write requests responded to by this memory
system.physmem.num_writes::cpu15.inst               0                       # Number of write requests responded to by this memory
system.physmem.num_writes::cpu15.data               0                       # Number of write requests responded to by this memory
system.physmem.num_writes::total                83974                       # Number of write requests responded to by this memory
system.physmem.bw_read::switch_cpus00.inst        48022                       # Total read bandwidth from this memory (bytes/s)
system.physmem.bw_read::switch_cpus00.data     34781161                       # Total read bandwidth from this memory (bytes/s)
system.physmem.bw_read::switch_cpus01.inst        46821                       # Total read bandwidth from this memory (bytes/s)
system.physmem.bw_read::switch_cpus01.data     38971084                       # Total read bandwidth from this memory (bytes/s)
system.physmem.bw_read::switch_cpus02.inst        46821                       # Total read bandwidth from this memory (bytes/s)
system.physmem.bw_read::switch_cpus02.data     39361263                       # Total read bandwidth from this memory (bytes/s)
system.physmem.bw_read::switch_cpus03.inst        40819                       # Total read bandwidth from this memory (bytes/s)
system.physmem.bw_read::switch_cpus03.data     24267937                       # Total read bandwidth from this memory (bytes/s)
system.physmem.bw_read::switch_cpus04.inst        45621                       # Total read bandwidth from this memory (bytes/s)
system.physmem.bw_read::switch_cpus04.data     24290747                       # Total read bandwidth from this memory (bytes/s)
system.physmem.bw_read::switch_cpus05.inst        49223                       # Total read bandwidth from this memory (bytes/s)
system.physmem.bw_read::switch_cpus05.data     39450104                       # Total read bandwidth from this memory (bytes/s)
system.physmem.bw_read::switch_cpus06.inst        48022                       # Total read bandwidth from this memory (bytes/s)
system.physmem.bw_read::switch_cpus06.data     14074059                       # Total read bandwidth from this memory (bytes/s)
system.physmem.bw_read::switch_cpus07.inst        46821                       # Total read bandwidth from this memory (bytes/s)
system.physmem.bw_read::switch_cpus07.data     24437214                       # Total read bandwidth from this memory (bytes/s)
system.physmem.bw_read::switch_cpus08.inst        42019                       # Total read bandwidth from this memory (bytes/s)
system.physmem.bw_read::switch_cpus08.data     13871165                       # Total read bandwidth from this memory (bytes/s)
system.physmem.bw_read::switch_cpus09.inst        40819                       # Total read bandwidth from this memory (bytes/s)
system.physmem.bw_read::switch_cpus09.data     24401198                       # Total read bandwidth from this memory (bytes/s)
system.physmem.bw_read::switch_cpus10.inst        45621                       # Total read bandwidth from this memory (bytes/s)
system.physmem.bw_read::switch_cpus10.data     35789624                       # Total read bandwidth from this memory (bytes/s)
system.physmem.bw_read::switch_cpus11.inst        44420                       # Total read bandwidth from this memory (bytes/s)
system.physmem.bw_read::switch_cpus11.data     13705489                       # Total read bandwidth from this memory (bytes/s)
system.physmem.bw_read::switch_cpus12.inst        49223                       # Total read bandwidth from this memory (bytes/s)
system.physmem.bw_read::switch_cpus12.data     17794566                       # Total read bandwidth from this memory (bytes/s)
system.physmem.bw_read::switch_cpus13.inst        40819                       # Total read bandwidth from this memory (bytes/s)
system.physmem.bw_read::switch_cpus13.data     24291948                       # Total read bandwidth from this memory (bytes/s)
system.physmem.bw_read::switch_cpus14.inst        45621                       # Total read bandwidth from this memory (bytes/s)
system.physmem.bw_read::switch_cpus14.data     35972108                       # Total read bandwidth from this memory (bytes/s)
system.physmem.bw_read::switch_cpus15.inst        40819                       # Total read bandwidth from this memory (bytes/s)
system.physmem.bw_read::switch_cpus15.data     24377187                       # Total read bandwidth from this memory (bytes/s)
system.physmem.bw_read::total               430558384                       # Total read bandwidth from this memory (bytes/s)
system.physmem.bw_inst_read::switch_cpus00.inst        48022                       # Instruction read bandwidth from this memory (bytes/s)
system.physmem.bw_inst_read::switch_cpus01.inst        46821                       # Instruction read bandwidth from this memory (bytes/s)
system.physmem.bw_inst_read::switch_cpus02.inst        46821                       # Instruction read bandwidth from this memory (bytes/s)
system.physmem.bw_inst_read::switch_cpus03.inst        40819                       # Instruction read bandwidth from this memory (bytes/s)
system.physmem.bw_inst_read::switch_cpus04.inst        45621                       # Instruction read bandwidth from this memory (bytes/s)
system.physmem.bw_inst_read::switch_cpus05.inst        49223                       # Instruction read bandwidth from this memory (bytes/s)
system.physmem.bw_inst_read::switch_cpus06.inst        48022                       # Instruction read bandwidth from this memory (bytes/s)
system.physmem.bw_inst_read::switch_cpus07.inst        46821                       # Instruction read bandwidth from this memory (bytes/s)
system.physmem.bw_inst_read::switch_cpus08.inst        42019                       # Instruction read bandwidth from this memory (bytes/s)
system.physmem.bw_inst_read::switch_cpus09.inst        40819                       # Instruction read bandwidth from this memory (bytes/s)
system.physmem.bw_inst_read::switch_cpus10.inst        45621                       # Instruction read bandwidth from this memory (bytes/s)
system.physmem.bw_inst_read::switch_cpus11.inst        44420                       # Instruction read bandwidth from this memory (bytes/s)
system.physmem.bw_inst_read::switch_cpus12.inst        49223                       # Instruction read bandwidth from this memory (bytes/s)
system.physmem.bw_inst_read::switch_cpus13.inst        40819                       # Instruction read bandwidth from this memory (bytes/s)
system.physmem.bw_inst_read::switch_cpus14.inst        45621                       # Instruction read bandwidth from this memory (bytes/s)
system.physmem.bw_inst_read::switch_cpus15.inst        40819                       # Instruction read bandwidth from this memory (bytes/s)
system.physmem.bw_inst_read::total             721531                       # Instruction read bandwidth from this memory (bytes/s)
system.physmem.bw_write::writebacks         100815064                       # Write bandwidth from this memory (bytes/s)
system.physmem.bw_write::total              100815064                       # Write bandwidth from this memory (bytes/s)
system.physmem.bw_total::writebacks         100815064                       # Total bandwidth to/from this memory (bytes/s)
system.physmem.bw_total::switch_cpus00.inst        48022                       # Total bandwidth to/from this memory (bytes/s)
system.physmem.bw_total::switch_cpus00.data     34781161                       # Total bandwidth to/from this memory (bytes/s)
system.physmem.bw_total::switch_cpus01.inst        46821                       # Total bandwidth to/from this memory (bytes/s)
system.physmem.bw_total::switch_cpus01.data     38971084                       # Total bandwidth to/from this memory (bytes/s)
system.physmem.bw_total::switch_cpus02.inst        46821                       # Total bandwidth to/from this memory (bytes/s)
system.physmem.bw_total::switch_cpus02.data     39361263                       # Total bandwidth to/from this memory (bytes/s)
system.physmem.bw_total::switch_cpus03.inst        40819                       # Total bandwidth to/from this memory (bytes/s)
system.physmem.bw_total::switch_cpus03.data     24267937                       # Total bandwidth to/from this memory (bytes/s)
system.physmem.bw_total::switch_cpus04.inst        45621                       # Total bandwidth to/from this memory (bytes/s)
system.physmem.bw_total::switch_cpus04.data     24290747                       # Total bandwidth to/from this memory (bytes/s)
system.physmem.bw_total::switch_cpus05.inst        49223                       # Total bandwidth to/from this memory (bytes/s)
system.physmem.bw_total::switch_cpus05.data     39450104                       # Total bandwidth to/from this memory (bytes/s)
system.physmem.bw_total::switch_cpus06.inst        48022                       # Total bandwidth to/from this memory (bytes/s)
system.physmem.bw_total::switch_cpus06.data     14074059                       # Total bandwidth to/from this memory (bytes/s)
system.physmem.bw_total::switch_cpus07.inst        46821                       # Total bandwidth to/from this memory (bytes/s)
system.physmem.bw_total::switch_cpus07.data     24437214                       # Total bandwidth to/from this memory (bytes/s)
system.physmem.bw_total::switch_cpus08.inst        42019                       # Total bandwidth to/from this memory (bytes/s)
system.physmem.bw_total::switch_cpus08.data     13871165                       # Total bandwidth to/from this memory (bytes/s)
system.physmem.bw_total::switch_cpus09.inst        40819                       # Total bandwidth to/from this memory (bytes/s)
system.physmem.bw_total::switch_cpus09.data     24401198                       # Total bandwidth to/from this memory (bytes/s)
system.physmem.bw_total::switch_cpus10.inst        45621                       # Total bandwidth to/from this memory (bytes/s)
system.physmem.bw_total::switch_cpus10.data     35789624                       # Total bandwidth to/from this memory (bytes/s)
system.physmem.bw_total::switch_cpus11.inst        44420                       # Total bandwidth to/from this memory (bytes/s)
system.physmem.bw_total::switch_cpus11.data     13705489                       # Total bandwidth to/from this memory (bytes/s)
system.physmem.bw_total::switch_cpus12.inst        49223                       # Total bandwidth to/from this memory (bytes/s)
system.physmem.bw_total::switch_cpus12.data     17794566                       # Total bandwidth to/from this memory (bytes/s)
system.physmem.bw_total::switch_cpus13.inst        40819                       # Total bandwidth to/from this memory (bytes/s)
system.physmem.bw_total::switch_cpus13.data     24291948                       # Total bandwidth to/from this memory (bytes/s)
system.physmem.bw_total::switch_cpus14.inst        45621                       # Total bandwidth to/from this memory (bytes/s)
system.physmem.bw_total::switch_cpus14.data     35972108                       # Total bandwidth to/from this memory (bytes/s)
system.physmem.bw_total::switch_cpus15.inst        40819                       # Total bandwidth to/from this memory (bytes/s)
system.physmem.bw_total::switch_cpus15.data     24377187                       # Total bandwidth to/from this memory (bytes/s)
system.physmem.bw_total::total              531373448                       # Total bandwidth to/from this memory (bytes/s)
system.switch_cpus00.dtb.inst_hits                  0                       # ITB inst hits
system.switch_cpus00.dtb.inst_misses                0                       # ITB inst misses
system.switch_cpus00.dtb.read_hits                  0                       # DTB read hits
system.switch_cpus00.dtb.read_misses                0                       # DTB read misses
system.switch_cpus00.dtb.write_hits                 0                       # DTB write hits
system.switch_cpus00.dtb.write_misses               0                       # DTB write misses
system.switch_cpus00.dtb.flush_tlb                  0                       # Number of times complete TLB was flushed
system.switch_cpus00.dtb.flush_tlb_mva              0                       # Number of times TLB was flushed by MVA
system.switch_cpus00.dtb.flush_tlb_mva_asid            0                       # Number of times TLB was flushed by MVA & ASID
system.switch_cpus00.dtb.flush_tlb_asid             0                       # Number of times TLB was flushed by ASID
system.switch_cpus00.dtb.flush_entries              0                       # Number of entries that have been flushed from TLB
system.switch_cpus00.dtb.align_faults               0                       # Number of TLB faults due to alignment restrictions
system.switch_cpus00.dtb.prefetch_faults            0                       # Number of TLB faults due to prefetch
system.switch_cpus00.dtb.domain_faults              0                       # Number of TLB faults due to domain restrictions
system.switch_cpus00.dtb.perms_faults               0                       # Number of TLB faults due to permissions restrictions
system.switch_cpus00.dtb.read_accesses              0                       # DTB read accesses
system.switch_cpus00.dtb.write_accesses             0                       # DTB write accesses
system.switch_cpus00.dtb.inst_accesses              0                       # ITB inst accesses
system.switch_cpus00.dtb.hits                       0                       # DTB hits
system.switch_cpus00.dtb.misses                     0                       # DTB misses
system.switch_cpus00.dtb.accesses                   0                       # DTB accesses
system.switch_cpus00.itb.inst_hits                  0                       # ITB inst hits
system.switch_cpus00.itb.inst_misses                0                       # ITB inst misses
system.switch_cpus00.itb.read_hits                  0                       # DTB read hits
system.switch_cpus00.itb.read_misses                0                       # DTB read misses
system.switch_cpus00.itb.write_hits                 0                       # DTB write hits
system.switch_cpus00.itb.write_misses               0                       # DTB write misses
system.switch_cpus00.itb.flush_tlb                  0                       # Number of times complete TLB was flushed
system.switch_cpus00.itb.flush_tlb_mva              0                       # Number of times TLB was flushed by MVA
system.switch_cpus00.itb.flush_tlb_mva_asid            0                       # Number of times TLB was flushed by MVA & ASID
system.switch_cpus00.itb.flush_tlb_asid             0                       # Number of times TLB was flushed by ASID
system.switch_cpus00.itb.flush_entries              0                       # Number of entries that have been flushed from TLB
system.switch_cpus00.itb.align_faults               0                       # Number of TLB faults due to alignment restrictions
system.switch_cpus00.itb.prefetch_faults            0                       # Number of TLB faults due to prefetch
system.switch_cpus00.itb.domain_faults              0                       # Number of TLB faults due to domain restrictions
system.switch_cpus00.itb.perms_faults               0                       # Number of TLB faults due to permissions restrictions
system.switch_cpus00.itb.read_accesses              0                       # DTB read accesses
system.switch_cpus00.itb.write_accesses             0                       # DTB write accesses
system.switch_cpus00.itb.inst_accesses              0                       # ITB inst accesses
system.switch_cpus00.itb.hits                       0                       # DTB hits
system.switch_cpus00.itb.misses                     0                       # DTB misses
system.switch_cpus00.itb.accesses                   0                       # DTB accesses
system.cpu00.workload.num_syscalls                 52                       # Number of system calls
system.switch_cpus00.numCycles              255677980                       # number of cpu cycles simulated
system.switch_cpus00.numWorkItemsStarted            0                       # number of work items this cpu started
system.switch_cpus00.numWorkItemsCompleted            0                       # number of work items this cpu completed
system.switch_cpus00.BPredUnit.lookups       20731503                       # Number of BP lookups
system.switch_cpus00.BPredUnit.condPredicted     16952975                       # Number of conditional branches predicted
system.switch_cpus00.BPredUnit.condIncorrect      2021536                       # Number of conditional branches incorrect
system.switch_cpus00.BPredUnit.BTBLookups      8504094                       # Number of BTB lookups
system.switch_cpus00.BPredUnit.BTBHits        8169694                       # Number of BTB hits
system.switch_cpus00.BPredUnit.BTBCorrect            0                       # Number of correct BTB predictions (this stat may not work properly.
system.switch_cpus00.BPredUnit.usedRAS        2133679                       # Number of times the RAS was used to get a target.
system.switch_cpus00.BPredUnit.RASInCorrect        89917                       # Number of incorrect RAS predictions.
system.switch_cpus00.fetch.icacheStallCycles    201214094                       # Number of cycles fetch is stalled on an Icache miss
system.switch_cpus00.fetch.Insts            117692270                       # Number of instructions fetch has processed
system.switch_cpus00.fetch.Branches          20731503                       # Number of branches that fetch encountered
system.switch_cpus00.fetch.predictedBranches     10303373                       # Number of branches that fetch has predicted taken
system.switch_cpus00.fetch.Cycles            24649670                       # Number of cycles fetch has run and was not squashing or blocked
system.switch_cpus00.fetch.SquashCycles       5879935                       # Number of cycles fetch has spent squashing
system.switch_cpus00.fetch.BlockedCycles      3541806                       # Number of cycles fetch has spent blocked
system.switch_cpus00.fetch.CacheLines        12371128                       # Number of cache lines fetched
system.switch_cpus00.fetch.IcacheSquashes      2037664                       # Number of outstanding Icache misses that were squashed
system.switch_cpus00.fetch.rateDist::samples    233219643                       # Number of instructions fetched each cycle (Total)
system.switch_cpus00.fetch.rateDist::mean     0.616591                       # Number of instructions fetched each cycle (Total)
system.switch_cpus00.fetch.rateDist::stdev     1.968354                       # Number of instructions fetched each cycle (Total)
system.switch_cpus00.fetch.rateDist::underflows            0      0.00%      0.00% # Number of instructions fetched each cycle (Total)
system.switch_cpus00.fetch.rateDist::0      208569973     89.43%     89.43% # Number of instructions fetched each cycle (Total)
system.switch_cpus00.fetch.rateDist::1        1330866      0.57%     90.00% # Number of instructions fetched each cycle (Total)
system.switch_cpus00.fetch.rateDist::2        2105015      0.90%     90.90% # Number of instructions fetched each cycle (Total)
system.switch_cpus00.fetch.rateDist::3        3362144      1.44%     92.35% # Number of instructions fetched each cycle (Total)
system.switch_cpus00.fetch.rateDist::4        1390789      0.60%     92.94% # Number of instructions fetched each cycle (Total)
system.switch_cpus00.fetch.rateDist::5        1552512      0.67%     93.61% # Number of instructions fetched each cycle (Total)
system.switch_cpus00.fetch.rateDist::6        1663981      0.71%     94.32% # Number of instructions fetched each cycle (Total)
system.switch_cpus00.fetch.rateDist::7        1090795      0.47%     94.79% # Number of instructions fetched each cycle (Total)
system.switch_cpus00.fetch.rateDist::8       12153568      5.21%    100.00% # Number of instructions fetched each cycle (Total)
system.switch_cpus00.fetch.rateDist::overflows            0      0.00%    100.00% # Number of instructions fetched each cycle (Total)
system.switch_cpus00.fetch.rateDist::min_value            0                       # Number of instructions fetched each cycle (Total)
system.switch_cpus00.fetch.rateDist::max_value            8                       # Number of instructions fetched each cycle (Total)
system.switch_cpus00.fetch.rateDist::total    233219643                       # Number of instructions fetched each cycle (Total)
system.switch_cpus00.fetch.branchRate        0.081084                       # Number of branch fetches per cycle
system.switch_cpus00.fetch.rate              0.460314                       # Number of inst fetches per cycle
system.switch_cpus00.decode.IdleCycles      199354183                       # Number of cycles decode is idle
system.switch_cpus00.decode.BlockedCycles      5416252                       # Number of cycles decode is blocked
system.switch_cpus00.decode.RunCycles        24573098                       # Number of cycles decode is running
system.switch_cpus00.decode.UnblockCycles        62504                       # Number of cycles decode is unblocking
system.switch_cpus00.decode.SquashCycles      3813603                       # Number of cycles decode is squashing
system.switch_cpus00.decode.BranchResolved      3400928                       # Number of times decode resolved a branch
system.switch_cpus00.decode.BranchMispred          471                       # Number of times decode detected a branch misprediction
system.switch_cpus00.decode.DecodedInsts    143714604                       # Number of instructions handled by decode
system.switch_cpus00.decode.SquashedInsts         3022                       # Number of squashed instructions handled by decode
system.switch_cpus00.rename.SquashCycles      3813603                       # Number of cycles rename is squashing
system.switch_cpus00.rename.IdleCycles      199655935                       # Number of cycles rename is idle
system.switch_cpus00.rename.BlockCycles       1733652                       # Number of cycles rename is blocking
system.switch_cpus00.rename.serializeStallCycles      2795057                       # count of cycles rename stalled for serializing inst
system.switch_cpus00.rename.RunCycles        24339731                       # Number of cycles rename is running
system.switch_cpus00.rename.UnblockCycles       881660                       # Number of cycles rename is unblocking
system.switch_cpus00.rename.RenamedInsts    143639384                       # Number of instructions processed by rename
system.switch_cpus00.rename.ROBFullEvents        25985                       # Number of times rename has blocked due to ROB full
system.switch_cpus00.rename.IQFullEvents       247483                       # Number of times rename has blocked due to IQ full
system.switch_cpus00.rename.LSQFullEvents       333436                       # Number of times rename has blocked due to LSQ full
system.switch_cpus00.rename.FullRegisterEvents        41137                       # Number of times there has been no free registers
system.switch_cpus00.rename.RenamedOperands    199429464                       # Number of destination operands rename has renamed
system.switch_cpus00.rename.RenameLookups    668210335                       # Number of register rename lookups that rename has made
system.switch_cpus00.rename.int_rename_lookups    668210335                       # Number of integer rename lookups
system.switch_cpus00.rename.CommittedMaps    170241826                       # Number of HB maps that are committed
system.switch_cpus00.rename.UndoneMaps       29187621                       # Number of HB maps that are undone due to squashing
system.switch_cpus00.rename.serializingInsts        36408                       # count of serializing insts renamed
system.switch_cpus00.rename.tempSerializingInsts        19945                       # count of temporary serializing insts renamed
system.switch_cpus00.rename.skidInsts         2654280                       # count of insts added to the skid buffer
system.switch_cpus00.memDep0.insertedLoads     13674550                       # Number of loads inserted to the mem dependence unit.
system.switch_cpus00.memDep0.insertedStores      7355587                       # Number of stores inserted to the mem dependence unit.
system.switch_cpus00.memDep0.conflictingLoads       221874                       # Number of conflicting loads.
system.switch_cpus00.memDep0.conflictingStores      1674044                       # Number of conflicting stores.
system.switch_cpus00.iq.iqInstsAdded        143456050                       # Number of instructions added to the IQ (excludes non-spec)
system.switch_cpus00.iq.iqNonSpecInstsAdded        36513                       # Number of non-speculative instructions added to the IQ
system.switch_cpus00.iq.iqInstsIssued       135758350                       # Number of instructions issued
system.switch_cpus00.iq.iqSquashedInstsIssued       166377                       # Number of squashed instructions issued
system.switch_cpus00.iq.iqSquashedInstsExamined     18223888                       # Number of squashed instructions iterated over during squash; mainly for profiling
system.switch_cpus00.iq.iqSquashedOperandsExamined     40585128                       # Number of squashed operands that are examined and possibly removed from graph
system.switch_cpus00.iq.iqSquashedNonSpecRemoved         3309                       # Number of squashed non-spec instructions that were removed
system.switch_cpus00.iq.issued_per_cycle::samples    233219643                       # Number of insts issued each cycle
system.switch_cpus00.iq.issued_per_cycle::mean     0.582105                       # Number of insts issued each cycle
system.switch_cpus00.iq.issued_per_cycle::stdev     1.274046                       # Number of insts issued each cycle
system.switch_cpus00.iq.issued_per_cycle::underflows            0      0.00%      0.00% # Number of insts issued each cycle
system.switch_cpus00.iq.issued_per_cycle::0    175994592     75.46%     75.46% # Number of insts issued each cycle
system.switch_cpus00.iq.issued_per_cycle::1     22960377      9.84%     85.31% # Number of insts issued each cycle
system.switch_cpus00.iq.issued_per_cycle::2     12550933      5.38%     90.69% # Number of insts issued each cycle
system.switch_cpus00.iq.issued_per_cycle::3      8566926      3.67%     94.36% # Number of insts issued each cycle
system.switch_cpus00.iq.issued_per_cycle::4      8016799      3.44%     97.80% # Number of insts issued each cycle
system.switch_cpus00.iq.issued_per_cycle::5      2302350      0.99%     98.79% # Number of insts issued each cycle
system.switch_cpus00.iq.issued_per_cycle::6      1797856      0.77%     99.56% # Number of insts issued each cycle
system.switch_cpus00.iq.issued_per_cycle::7       609233      0.26%     99.82% # Number of insts issued each cycle
system.switch_cpus00.iq.issued_per_cycle::8       420577      0.18%    100.00% # Number of insts issued each cycle
system.switch_cpus00.iq.issued_per_cycle::overflows            0      0.00%    100.00% # Number of insts issued each cycle
system.switch_cpus00.iq.issued_per_cycle::min_value            0                       # Number of insts issued each cycle
system.switch_cpus00.iq.issued_per_cycle::max_value            8                       # Number of insts issued each cycle
system.switch_cpus00.iq.issued_per_cycle::total    233219643                       # Number of insts issued each cycle
system.switch_cpus00.iq.fu_full::No_OpClass            0      0.00%      0.00% # attempts to use FU when none available
system.switch_cpus00.iq.fu_full::IntAlu         31629     12.53%     12.53% # attempts to use FU when none available
system.switch_cpus00.iq.fu_full::IntMult            0      0.00%     12.53% # attempts to use FU when none available
system.switch_cpus00.iq.fu_full::IntDiv             0      0.00%     12.53% # attempts to use FU when none available
system.switch_cpus00.iq.fu_full::FloatAdd            0      0.00%     12.53% # attempts to use FU when none available
system.switch_cpus00.iq.fu_full::FloatCmp            0      0.00%     12.53% # attempts to use FU when none available
system.switch_cpus00.iq.fu_full::FloatCvt            0      0.00%     12.53% # attempts to use FU when none available
system.switch_cpus00.iq.fu_full::FloatMult            0      0.00%     12.53% # attempts to use FU when none available
system.switch_cpus00.iq.fu_full::FloatDiv            0      0.00%     12.53% # attempts to use FU when none available
system.switch_cpus00.iq.fu_full::FloatSqrt            0      0.00%     12.53% # attempts to use FU when none available
system.switch_cpus00.iq.fu_full::SimdAdd            0      0.00%     12.53% # attempts to use FU when none available
system.switch_cpus00.iq.fu_full::SimdAddAcc            0      0.00%     12.53% # attempts to use FU when none available
system.switch_cpus00.iq.fu_full::SimdAlu            0      0.00%     12.53% # attempts to use FU when none available
system.switch_cpus00.iq.fu_full::SimdCmp            0      0.00%     12.53% # attempts to use FU when none available
system.switch_cpus00.iq.fu_full::SimdCvt            0      0.00%     12.53% # attempts to use FU when none available
system.switch_cpus00.iq.fu_full::SimdMisc            0      0.00%     12.53% # attempts to use FU when none available
system.switch_cpus00.iq.fu_full::SimdMult            0      0.00%     12.53% # attempts to use FU when none available
system.switch_cpus00.iq.fu_full::SimdMultAcc            0      0.00%     12.53% # attempts to use FU when none available
system.switch_cpus00.iq.fu_full::SimdShift            0      0.00%     12.53% # attempts to use FU when none available
system.switch_cpus00.iq.fu_full::SimdShiftAcc            0      0.00%     12.53% # attempts to use FU when none available
system.switch_cpus00.iq.fu_full::SimdSqrt            0      0.00%     12.53% # attempts to use FU when none available
system.switch_cpus00.iq.fu_full::SimdFloatAdd            0      0.00%     12.53% # attempts to use FU when none available
system.switch_cpus00.iq.fu_full::SimdFloatAlu            0      0.00%     12.53% # attempts to use FU when none available
system.switch_cpus00.iq.fu_full::SimdFloatCmp            0      0.00%     12.53% # attempts to use FU when none available
system.switch_cpus00.iq.fu_full::SimdFloatCvt            0      0.00%     12.53% # attempts to use FU when none available
system.switch_cpus00.iq.fu_full::SimdFloatDiv            0      0.00%     12.53% # attempts to use FU when none available
system.switch_cpus00.iq.fu_full::SimdFloatMisc            0      0.00%     12.53% # attempts to use FU when none available
system.switch_cpus00.iq.fu_full::SimdFloatMult            0      0.00%     12.53% # attempts to use FU when none available
system.switch_cpus00.iq.fu_full::SimdFloatMultAcc            0      0.00%     12.53% # attempts to use FU when none available
system.switch_cpus00.iq.fu_full::SimdFloatSqrt            0      0.00%     12.53% # attempts to use FU when none available
system.switch_cpus00.iq.fu_full::MemRead        97413     38.58%     51.11% # attempts to use FU when none available
system.switch_cpus00.iq.fu_full::MemWrite       123434     48.89%    100.00% # attempts to use FU when none available
system.switch_cpus00.iq.fu_full::IprAccess            0      0.00%    100.00% # attempts to use FU when none available
system.switch_cpus00.iq.fu_full::InstPrefetch            0      0.00%    100.00% # attempts to use FU when none available
system.switch_cpus00.iq.FU_type_0::No_OpClass            0      0.00%      0.00% # Type of FU issued
system.switch_cpus00.iq.FU_type_0::IntAlu    113729105     83.77%     83.77% # Type of FU issued
system.switch_cpus00.iq.FU_type_0::IntMult      2148751      1.58%     85.36% # Type of FU issued
system.switch_cpus00.iq.FU_type_0::IntDiv            0      0.00%     85.36% # Type of FU issued
system.switch_cpus00.iq.FU_type_0::FloatAdd            0      0.00%     85.36% # Type of FU issued
system.switch_cpus00.iq.FU_type_0::FloatCmp            0      0.00%     85.36% # Type of FU issued
system.switch_cpus00.iq.FU_type_0::FloatCvt            0      0.00%     85.36% # Type of FU issued
system.switch_cpus00.iq.FU_type_0::FloatMult            0      0.00%     85.36% # Type of FU issued
system.switch_cpus00.iq.FU_type_0::FloatDiv            0      0.00%     85.36% # Type of FU issued
system.switch_cpus00.iq.FU_type_0::FloatSqrt            0      0.00%     85.36% # Type of FU issued
system.switch_cpus00.iq.FU_type_0::SimdAdd            0      0.00%     85.36% # Type of FU issued
system.switch_cpus00.iq.FU_type_0::SimdAddAcc            0      0.00%     85.36% # Type of FU issued
system.switch_cpus00.iq.FU_type_0::SimdAlu            0      0.00%     85.36% # Type of FU issued
system.switch_cpus00.iq.FU_type_0::SimdCmp            0      0.00%     85.36% # Type of FU issued
system.switch_cpus00.iq.FU_type_0::SimdCvt            0      0.00%     85.36% # Type of FU issued
system.switch_cpus00.iq.FU_type_0::SimdMisc            0      0.00%     85.36% # Type of FU issued
system.switch_cpus00.iq.FU_type_0::SimdMult            0      0.00%     85.36% # Type of FU issued
system.switch_cpus00.iq.FU_type_0::SimdMultAcc            0      0.00%     85.36% # Type of FU issued
system.switch_cpus00.iq.FU_type_0::SimdShift            0      0.00%     85.36% # Type of FU issued
system.switch_cpus00.iq.FU_type_0::SimdShiftAcc            0      0.00%     85.36% # Type of FU issued
system.switch_cpus00.iq.FU_type_0::SimdSqrt            0      0.00%     85.36% # Type of FU issued
system.switch_cpus00.iq.FU_type_0::SimdFloatAdd            0      0.00%     85.36% # Type of FU issued
system.switch_cpus00.iq.FU_type_0::SimdFloatAlu            0      0.00%     85.36% # Type of FU issued
system.switch_cpus00.iq.FU_type_0::SimdFloatCmp            0      0.00%     85.36% # Type of FU issued
system.switch_cpus00.iq.FU_type_0::SimdFloatCvt            0      0.00%     85.36% # Type of FU issued
system.switch_cpus00.iq.FU_type_0::SimdFloatDiv            0      0.00%     85.36% # Type of FU issued
system.switch_cpus00.iq.FU_type_0::SimdFloatMisc        16461      0.01%     85.37% # Type of FU issued
system.switch_cpus00.iq.FU_type_0::SimdFloatMult            0      0.00%     85.37% # Type of FU issued
system.switch_cpus00.iq.FU_type_0::SimdFloatMultAcc            0      0.00%     85.37% # Type of FU issued
system.switch_cpus00.iq.FU_type_0::SimdFloatSqrt            0      0.00%     85.37% # Type of FU issued
system.switch_cpus00.iq.FU_type_0::MemRead     12543344      9.24%     94.61% # Type of FU issued
system.switch_cpus00.iq.FU_type_0::MemWrite      7320689      5.39%    100.00% # Type of FU issued
system.switch_cpus00.iq.FU_type_0::IprAccess            0      0.00%    100.00% # Type of FU issued
system.switch_cpus00.iq.FU_type_0::InstPrefetch            0      0.00%    100.00% # Type of FU issued
system.switch_cpus00.iq.FU_type_0::total    135758350                       # Type of FU issued
system.switch_cpus00.iq.rate                 0.530974                       # Inst issue rate
system.switch_cpus00.iq.fu_busy_cnt            252476                       # FU busy when requested
system.switch_cpus00.iq.fu_busy_rate         0.001860                       # FU busy rate (busy events/executed inst)
system.switch_cpus00.iq.int_inst_queue_reads    505155195                       # Number of integer instruction queue reads
system.switch_cpus00.iq.int_inst_queue_writes    161717956                       # Number of integer instruction queue writes
system.switch_cpus00.iq.int_inst_queue_wakeup_accesses    133581058                       # Number of integer instruction queue wakeup accesses
system.switch_cpus00.iq.fp_inst_queue_reads            0                       # Number of floating instruction queue reads
system.switch_cpus00.iq.fp_inst_queue_writes            0                       # Number of floating instruction queue writes
system.switch_cpus00.iq.fp_inst_queue_wakeup_accesses            0                       # Number of floating instruction queue wakeup accesses
system.switch_cpus00.iq.int_alu_accesses    136010826                       # Number of integer alu accesses
system.switch_cpus00.iq.fp_alu_accesses             0                       # Number of floating point alu accesses
system.switch_cpus00.iew.lsq.thread0.forwLoads       408862                       # Number of loads that had data forwarded from stores
system.switch_cpus00.iew.lsq.thread0.invAddrLoads            0                       # Number of loads ignored due to an invalid address
system.switch_cpus00.iew.lsq.thread0.squashedLoads      2438153                       # Number of loads squashed
system.switch_cpus00.iew.lsq.thread0.ignoredResponses          359                       # Number of memory responses ignored because the instruction is squashed
system.switch_cpus00.iew.lsq.thread0.memOrderViolation         1541                       # Number of memory ordering violations
system.switch_cpus00.iew.lsq.thread0.squashedStores       212571                       # Number of stores squashed
system.switch_cpus00.iew.lsq.thread0.invAddrSwpfs            0                       # Number of software prefetches ignored due to an invalid address
system.switch_cpus00.iew.lsq.thread0.blockedLoads            0                       # Number of blocked loads due to partial load-store forwarding
system.switch_cpus00.iew.lsq.thread0.rescheduledLoads         8466                       # Number of loads that were rescheduled
system.switch_cpus00.iew.lsq.thread0.cacheBlocked            0                       # Number of times an access to memory failed due to the cache being blocked
system.switch_cpus00.iew.iewIdleCycles              0                       # Number of cycles IEW is idle
system.switch_cpus00.iew.iewSquashCycles      3813603                       # Number of cycles IEW is squashing
system.switch_cpus00.iew.iewBlockCycles       1158016                       # Number of cycles IEW is blocking
system.switch_cpus00.iew.iewUnblockCycles       121334                       # Number of cycles IEW is unblocking
system.switch_cpus00.iew.iewDispatchedInsts    143492703                       # Number of instructions dispatched to IQ
system.switch_cpus00.iew.iewDispSquashedInsts         8921                       # Number of squashed instructions skipped by dispatch
system.switch_cpus00.iew.iewDispLoadInsts     13674550                       # Number of dispatched load instructions
system.switch_cpus00.iew.iewDispStoreInsts      7355587                       # Number of dispatched store instructions
system.switch_cpus00.iew.iewDispNonSpecInsts        19928                       # Number of dispatched non-speculative instructions
system.switch_cpus00.iew.iewIQFullEvents        89073                       # Number of times the IQ has become full, causing a stall
system.switch_cpus00.iew.iewLSQFullEvents           35                       # Number of times the LSQ has become full, causing a stall
system.switch_cpus00.iew.memOrderViolationEvents         1541                       # Number of memory order violations
system.switch_cpus00.iew.predictedTakenIncorrect      1181495                       # Number of branches that were predicted taken incorrectly
system.switch_cpus00.iew.predictedNotTakenIncorrect      1153833                       # Number of branches that were predicted not taken incorrectly
system.switch_cpus00.iew.branchMispredicts      2335328                       # Number of branch mispredicts detected at execute
system.switch_cpus00.iew.iewExecutedInsts    133829740                       # Number of executed instructions
system.switch_cpus00.iew.iewExecLoadInsts     11796612                       # Number of load instructions executed
system.switch_cpus00.iew.iewExecSquashedInsts      1928609                       # Number of squashed instructions skipped in execute
system.switch_cpus00.iew.exec_swp                   0                       # number of swp insts executed
system.switch_cpus00.iew.exec_nop                 140                       # number of nop insts executed
system.switch_cpus00.iew.exec_refs           19115613                       # number of memory reference insts executed
system.switch_cpus00.iew.exec_branches       18825997                       # Number of branches executed
system.switch_cpus00.iew.exec_stores          7319001                       # Number of stores executed
system.switch_cpus00.iew.exec_rate           0.523431                       # Inst execution rate
system.switch_cpus00.iew.wb_sent            133582087                       # cumulative count of insts sent to commit
system.switch_cpus00.iew.wb_count           133581058                       # cumulative count of insts written-back
system.switch_cpus00.iew.wb_producers        78095565                       # num instructions producing a value
system.switch_cpus00.iew.wb_consumers       204052317                       # num instructions consuming a value
system.switch_cpus00.iew.wb_penalized               0                       # number of instrctions required to write to 'other' IQ
system.switch_cpus00.iew.wb_rate             0.522458                       # insts written-back per cycle
system.switch_cpus00.iew.wb_fanout           0.382723                       # average fanout of values written-back
system.switch_cpus00.iew.wb_penalized_rate            0                       # fraction of instructions written-back that wrote to 'other' IQ
system.switch_cpus00.commit.commitCommittedInsts    100000000                       # The number of committed instructions
system.switch_cpus00.commit.commitCommittedOps    122574593                       # The number of committed instructions
system.switch_cpus00.commit.commitSquashedInsts     20918310                       # The number of squashed insts skipped by commit
system.switch_cpus00.commit.commitNonSpecStalls        33204                       # The number of times commit has been forced to stall to communicate backwards
system.switch_cpus00.commit.branchMispredicts      2064362                       # The number of times a branch was mispredicted
system.switch_cpus00.commit.committed_per_cycle::samples    229406040                       # Number of insts commited each cycle
system.switch_cpus00.commit.committed_per_cycle::mean     0.534313                       # Number of insts commited each cycle
system.switch_cpus00.commit.committed_per_cycle::stdev     1.388047                       # Number of insts commited each cycle
system.switch_cpus00.commit.committed_per_cycle::underflows            0      0.00%      0.00% # Number of insts commited each cycle
system.switch_cpus00.commit.committed_per_cycle::0    179647880     78.31%     78.31% # Number of insts commited each cycle
system.switch_cpus00.commit.committed_per_cycle::1     24098952     10.50%     88.81% # Number of insts commited each cycle
system.switch_cpus00.commit.committed_per_cycle::2      9379801      4.09%     92.90% # Number of insts commited each cycle
system.switch_cpus00.commit.committed_per_cycle::3      5053461      2.20%     95.11% # Number of insts commited each cycle
system.switch_cpus00.commit.committed_per_cycle::4      3784573      1.65%     96.76% # Number of insts commited each cycle
system.switch_cpus00.commit.committed_per_cycle::5      2113317      0.92%     97.68% # Number of insts commited each cycle
system.switch_cpus00.commit.committed_per_cycle::6      1303924      0.57%     98.25% # Number of insts commited each cycle
system.switch_cpus00.commit.committed_per_cycle::7      1165821      0.51%     98.75% # Number of insts commited each cycle
system.switch_cpus00.commit.committed_per_cycle::8      2858311      1.25%    100.00% # Number of insts commited each cycle
system.switch_cpus00.commit.committed_per_cycle::overflows            0      0.00%    100.00% # Number of insts commited each cycle
system.switch_cpus00.commit.committed_per_cycle::min_value            0                       # Number of insts commited each cycle
system.switch_cpus00.commit.committed_per_cycle::max_value            8                       # Number of insts commited each cycle
system.switch_cpus00.commit.committed_per_cycle::total    229406040                       # Number of insts commited each cycle
system.switch_cpus00.commit.committedInsts    100000000                       # Number of instructions committed
system.switch_cpus00.commit.committedOps    122574593                       # Number of ops (including micro ops) committed
system.switch_cpus00.commit.swp_count               0                       # Number of s/w prefetches committed
system.switch_cpus00.commit.refs             18379413                       # Number of memory references committed
system.switch_cpus00.commit.loads            11236397                       # Number of loads committed
system.switch_cpus00.commit.membars             16566                       # Number of memory barriers committed
system.switch_cpus00.commit.branches         17595165                       # Number of branches committed
system.switch_cpus00.commit.fp_insts                0                       # Number of committed floating point instructions.
system.switch_cpus00.commit.int_insts       110448786                       # Number of committed integer instructions.
system.switch_cpus00.commit.function_calls      2490081                       # Number of function calls committed.
system.switch_cpus00.commit.bw_lim_events      2858311                       # number cycles where commit BW limit reached
system.switch_cpus00.commit.bw_limited              0                       # number of insts not committed due to BW limits
system.switch_cpus00.rob.rob_reads          370039956                       # The number of ROB reads
system.switch_cpus00.rob.rob_writes         290799630                       # The number of ROB writes
system.switch_cpus00.timesIdled               3247139                       # Number of times that the entire CPU went into an idle state and unscheduled itself
system.switch_cpus00.idleCycles              22458337                       # Total number of cycles that the CPU has spent unscheduled due to idling
system.switch_cpus00.committedInsts         100000000                       # Number of Instructions Simulated
system.switch_cpus00.committedOps           122574593                       # Number of Ops (including micro ops) Simulated
system.switch_cpus00.committedInsts_total    100000000                       # Number of Instructions Simulated
system.switch_cpus00.cpi                     2.556780                       # CPI: Cycles Per Instruction
system.switch_cpus00.cpi_total               2.556780                       # CPI: Total CPI of All Threads
system.switch_cpus00.ipc                     0.391117                       # IPC: Instructions Per Cycle
system.switch_cpus00.ipc_total               0.391117                       # IPC: Total IPC of All Threads
system.switch_cpus00.int_regfile_reads      603506588                       # number of integer regfile reads
system.switch_cpus00.int_regfile_writes     185164319                       # number of integer regfile writes
system.switch_cpus00.misc_regfile_reads     134046204                       # number of misc regfile reads
system.switch_cpus00.misc_regfile_writes        33172                       # number of misc regfile writes
system.switch_cpus01.dtb.inst_hits                  0                       # ITB inst hits
system.switch_cpus01.dtb.inst_misses                0                       # ITB inst misses
system.switch_cpus01.dtb.read_hits                  0                       # DTB read hits
system.switch_cpus01.dtb.read_misses                0                       # DTB read misses
system.switch_cpus01.dtb.write_hits                 0                       # DTB write hits
system.switch_cpus01.dtb.write_misses               0                       # DTB write misses
system.switch_cpus01.dtb.flush_tlb                  0                       # Number of times complete TLB was flushed
system.switch_cpus01.dtb.flush_tlb_mva              0                       # Number of times TLB was flushed by MVA
system.switch_cpus01.dtb.flush_tlb_mva_asid            0                       # Number of times TLB was flushed by MVA & ASID
system.switch_cpus01.dtb.flush_tlb_asid             0                       # Number of times TLB was flushed by ASID
system.switch_cpus01.dtb.flush_entries              0                       # Number of entries that have been flushed from TLB
system.switch_cpus01.dtb.align_faults               0                       # Number of TLB faults due to alignment restrictions
system.switch_cpus01.dtb.prefetch_faults            0                       # Number of TLB faults due to prefetch
system.switch_cpus01.dtb.domain_faults              0                       # Number of TLB faults due to domain restrictions
system.switch_cpus01.dtb.perms_faults               0                       # Number of TLB faults due to permissions restrictions
system.switch_cpus01.dtb.read_accesses              0                       # DTB read accesses
system.switch_cpus01.dtb.write_accesses             0                       # DTB write accesses
system.switch_cpus01.dtb.inst_accesses              0                       # ITB inst accesses
system.switch_cpus01.dtb.hits                       0                       # DTB hits
system.switch_cpus01.dtb.misses                     0                       # DTB misses
system.switch_cpus01.dtb.accesses                   0                       # DTB accesses
[...]
system.cpu15.icache.demand_avg_miss_latency::total 167163.045455                       # average overall miss latency
system.cpu15.icache.overall_avg_miss_latency::switch_cpus15.inst 167163.045455                       # average overall miss latency
system.cpu15.icache.overall_avg_miss_latency::total 167163.045455                       # average overall miss latency
system.cpu15.icache.blocked_cycles::no_mshrs            0                       # number of cycles access was blocked
system.cpu15.icache.blocked_cycles::no_targets            0                       # number of cycles access was blocked
system.cpu15.icache.blocked::no_mshrs               0                       # number of cycles access was blocked
system.cpu15.icache.blocked::no_targets             0                       # number of cycles access was blocked
system.cpu15.icache.avg_blocked_cycles::no_mshrs          nan                       # average number of cycles each access was blocked
system.cpu15.icache.avg_blocked_cycles::no_targets          nan                       # average number of cycles each access was blocked
system.cpu15.icache.fast_writes                     0                       # number of fast writes performed
system.cpu15.icache.cache_copies                    0                       # number of cache copies performed
system.cpu15.icache.ReadReq_mshr_hits::switch_cpus15.inst            9                       # number of ReadReq MSHR hits
system.cpu15.icache.ReadReq_mshr_hits::total            9                       # number of ReadReq MSHR hits
system.cpu15.icache.demand_mshr_hits::switch_cpus15.inst            9                       # number of demand (read+write) MSHR hits
system.cpu15.icache.demand_mshr_hits::total            9                       # number of demand (read+write) MSHR hits
system.cpu15.icache.overall_mshr_hits::switch_cpus15.inst            9                       # number of overall MSHR hits
system.cpu15.icache.overall_mshr_hits::total            9                       # number of overall MSHR hits
system.cpu15.icache.ReadReq_mshr_misses::switch_cpus15.inst           35                       # number of ReadReq MSHR misses
system.cpu15.icache.ReadReq_mshr_misses::total           35                       # number of ReadReq MSHR misses
system.cpu15.icache.demand_mshr_misses::switch_cpus15.inst           35                       # number of demand (read+write) MSHR misses
system.cpu15.icache.demand_mshr_misses::total           35                       # number of demand (read+write) MSHR misses
system.cpu15.icache.overall_mshr_misses::switch_cpus15.inst           35                       # number of overall MSHR misses
system.cpu15.icache.overall_mshr_misses::total           35                       # number of overall MSHR misses
system.cpu15.icache.ReadReq_mshr_miss_latency::switch_cpus15.inst      6071582                       # number of ReadReq MSHR miss cycles
system.cpu15.icache.ReadReq_mshr_miss_latency::total      6071582                       # number of ReadReq MSHR miss cycles
system.cpu15.icache.demand_mshr_miss_latency::switch_cpus15.inst      6071582                       # number of demand (read+write) MSHR miss cycles
system.cpu15.icache.demand_mshr_miss_latency::total      6071582                       # number of demand (read+write) MSHR miss cycles
system.cpu15.icache.overall_mshr_miss_latency::switch_cpus15.inst      6071582                       # number of overall MSHR miss cycles
system.cpu15.icache.overall_mshr_miss_latency::total      6071582                       # number of overall MSHR miss cycles
system.cpu15.icache.ReadReq_mshr_miss_rate::switch_cpus15.inst     0.000003                       # mshr miss rate for ReadReq accesses
system.cpu15.icache.ReadReq_mshr_miss_rate::total     0.000003                       # mshr miss rate for ReadReq accesses
system.cpu15.icache.demand_mshr_miss_rate::switch_cpus15.inst     0.000003                       # mshr miss rate for demand accesses
system.cpu15.icache.demand_mshr_miss_rate::total     0.000003                       # mshr miss rate for demand accesses
system.cpu15.icache.overall_mshr_miss_rate::switch_cpus15.inst     0.000003                       # mshr miss rate for overall accesses
system.cpu15.icache.overall_mshr_miss_rate::total     0.000003                       # mshr miss rate for overall accesses
system.cpu15.icache.ReadReq_avg_mshr_miss_latency::switch_cpus15.inst 173473.771429                       # average ReadReq mshr miss latency
system.cpu15.icache.ReadReq_avg_mshr_miss_latency::total 173473.771429                       # average ReadReq mshr miss latency
system.cpu15.icache.demand_avg_mshr_miss_latency::switch_cpus15.inst 173473.771429                       # average overall mshr miss latency
system.cpu15.icache.demand_avg_mshr_miss_latency::total 173473.771429                       # average overall mshr miss latency
system.cpu15.icache.overall_avg_mshr_miss_latency::switch_cpus15.inst 173473.771429                       # average overall mshr miss latency
system.cpu15.icache.overall_avg_mshr_miss_latency::total 173473.771429                       # average overall mshr miss latency
system.cpu15.icache.no_allocate_misses              0                       # Number of misses that were no-allocate
system.cpu15.dcache.replacements                55697                       # number of replacements
system.cpu15.dcache.tagsinuse                     256                       # Cycle average of tags in use
system.cpu15.dcache.total_refs              223856336                       # Total number of references to valid blocks.
system.cpu15.dcache.sampled_refs                55953                       # Sample count of references to valid blocks.
system.cpu15.dcache.avg_refs              4000.792379                       # Average number of references to valid blocks.
system.cpu15.dcache.warmup_cycle                    0                       # Cycle when the warmup percentage was hit.
system.cpu15.dcache.occ_blocks::switch_cpus15.data   201.891087                       # Average occupied blocks per requestor
system.cpu15.dcache.occ_blocks::cpu15.data    54.108913                       # Average occupied blocks per requestor
system.cpu15.dcache.occ_percent::switch_cpus15.data     0.788637                       # Average percentage of cache occupancy
system.cpu15.dcache.occ_percent::cpu15.data     0.211363                       # Average percentage of cache occupancy
system.cpu15.dcache.occ_percent::total              1                       # Average percentage of cache occupancy
system.cpu15.dcache.ReadReq_hits::switch_cpus15.data     18236380                       # number of ReadReq hits
system.cpu15.dcache.ReadReq_hits::total      18236380                       # number of ReadReq hits
system.cpu15.dcache.WriteReq_hits::switch_cpus15.data      3501072                       # number of WriteReq hits
system.cpu15.dcache.WriteReq_hits::total      3501072                       # number of WriteReq hits
system.cpu15.dcache.LoadLockedReq_hits::switch_cpus15.data         8281                       # number of LoadLockedReq hits
system.cpu15.dcache.LoadLockedReq_hits::total         8281                       # number of LoadLockedReq hits
system.cpu15.dcache.StoreCondReq_hits::switch_cpus15.data         8216                       # number of StoreCondReq hits
system.cpu15.dcache.StoreCondReq_hits::total         8216                       # number of StoreCondReq hits
system.cpu15.dcache.demand_hits::switch_cpus15.data     21737452                       # number of demand (read+write) hits
system.cpu15.dcache.demand_hits::total       21737452                       # number of demand (read+write) hits
system.cpu15.dcache.overall_hits::switch_cpus15.data     21737452                       # number of overall hits
system.cpu15.dcache.overall_hits::total      21737452                       # number of overall hits
system.cpu15.dcache.ReadReq_misses::switch_cpus15.data       194272                       # number of ReadReq misses
system.cpu15.dcache.ReadReq_misses::total       194272                       # number of ReadReq misses
system.cpu15.dcache.WriteReq_misses::switch_cpus15.data          359                       # number of WriteReq misses
system.cpu15.dcache.WriteReq_misses::total          359                       # number of WriteReq misses
system.cpu15.dcache.demand_misses::switch_cpus15.data       194631                       # number of demand (read+write) misses
system.cpu15.dcache.demand_misses::total       194631                       # number of demand (read+write) misses
system.cpu15.dcache.overall_misses::switch_cpus15.data       194631                       # number of overall misses
system.cpu15.dcache.overall_misses::total       194631                       # number of overall misses
system.cpu15.dcache.ReadReq_miss_latency::switch_cpus15.data  22313280754                       # number of ReadReq miss cycles
system.cpu15.dcache.ReadReq_miss_latency::total  22313280754                       # number of ReadReq miss cycles
system.cpu15.dcache.WriteReq_miss_latency::switch_cpus15.data     33635792                       # number of WriteReq miss cycles
system.cpu15.dcache.WriteReq_miss_latency::total     33635792                       # number of WriteReq miss cycles
system.cpu15.dcache.demand_miss_latency::switch_cpus15.data  22346916546                       # number of demand (read+write) miss cycles
system.cpu15.dcache.demand_miss_latency::total  22346916546                       # number of demand (read+write) miss cycles
system.cpu15.dcache.overall_miss_latency::switch_cpus15.data  22346916546                       # number of overall miss cycles
system.cpu15.dcache.overall_miss_latency::total  22346916546                       # number of overall miss cycles
system.cpu15.dcache.ReadReq_accesses::switch_cpus15.data     18430652                       # number of ReadReq accesses(hits+misses)
system.cpu15.dcache.ReadReq_accesses::total     18430652                       # number of ReadReq accesses(hits+misses)
system.cpu15.dcache.WriteReq_accesses::switch_cpus15.data      3501431                       # number of WriteReq accesses(hits+misses)
system.cpu15.dcache.WriteReq_accesses::total      3501431                       # number of WriteReq accesses(hits+misses)
system.cpu15.dcache.LoadLockedReq_accesses::switch_cpus15.data         8281                       # number of LoadLockedReq accesses(hits+misses)
system.cpu15.dcache.LoadLockedReq_accesses::total         8281                       # number of LoadLockedReq accesses(hits+misses)
system.cpu15.dcache.StoreCondReq_accesses::switch_cpus15.data         8216                       # number of StoreCondReq accesses(hits+misses)
system.cpu15.dcache.StoreCondReq_accesses::total         8216                       # number of StoreCondReq accesses(hits+misses)
system.cpu15.dcache.demand_accesses::switch_cpus15.data     21932083                       # number of demand (read+write) accesses
system.cpu15.dcache.demand_accesses::total     21932083                       # number of demand (read+write) accesses
system.cpu15.dcache.overall_accesses::switch_cpus15.data     21932083                       # number of overall (read+write) accesses
system.cpu15.dcache.overall_accesses::total     21932083                       # number of overall (read+write) accesses
system.cpu15.dcache.ReadReq_miss_rate::switch_cpus15.data     0.010541                       # miss rate for ReadReq accesses
system.cpu15.dcache.ReadReq_miss_rate::total     0.010541                       # miss rate for ReadReq accesses
system.cpu15.dcache.WriteReq_miss_rate::switch_cpus15.data     0.000103                       # miss rate for WriteReq accesses
system.cpu15.dcache.WriteReq_miss_rate::total     0.000103                       # miss rate for WriteReq accesses
system.cpu15.dcache.demand_miss_rate::switch_cpus15.data     0.008874                       # miss rate for demand accesses
system.cpu15.dcache.demand_miss_rate::total     0.008874                       # miss rate for demand accesses
system.cpu15.dcache.overall_miss_rate::switch_cpus15.data     0.008874                       # miss rate for overall accesses
system.cpu15.dcache.overall_miss_rate::total     0.008874                       # miss rate for overall accesses
system.cpu15.dcache.ReadReq_avg_miss_latency::switch_cpus15.data 114855.876060                       # average ReadReq miss latency
system.cpu15.dcache.ReadReq_avg_miss_latency::total 114855.876060                       # average ReadReq miss latency
system.cpu15.dcache.WriteReq_avg_miss_latency::switch_cpus15.data 93693.013928                       # average WriteReq miss latency
system.cpu15.dcache.WriteReq_avg_miss_latency::total 93693.013928                       # average WriteReq miss latency
system.cpu15.dcache.demand_avg_miss_latency::switch_cpus15.data 114816.840822                       # average overall miss latency
system.cpu15.dcache.demand_avg_miss_latency::total 114816.840822                       # average overall miss latency
system.cpu15.dcache.overall_avg_miss_latency::switch_cpus15.data 114816.840822                       # average overall miss latency
system.cpu15.dcache.overall_avg_miss_latency::total 114816.840822                       # average overall miss latency
system.cpu15.dcache.blocked_cycles::no_mshrs            0                       # number of cycles access was blocked
system.cpu15.dcache.blocked_cycles::no_targets            0                       # number of cycles access was blocked
system.cpu15.dcache.blocked::no_mshrs               0                       # number of cycles access was blocked
system.cpu15.dcache.blocked::no_targets             0                       # number of cycles access was blocked
system.cpu15.dcache.avg_blocked_cycles::no_mshrs          nan                       # average number of cycles each access was blocked
system.cpu15.dcache.avg_blocked_cycles::no_targets          nan                       # average number of cycles each access was blocked
system.cpu15.dcache.fast_writes                     0                       # number of fast writes performed
system.cpu15.dcache.cache_copies                    0                       # number of cache copies performed
system.cpu15.dcache.writebacks::writebacks         6586                       # number of writebacks
system.cpu15.dcache.writebacks::total            6586                       # number of writebacks
system.cpu15.dcache.ReadReq_mshr_hits::switch_cpus15.data       138649                       # number of ReadReq MSHR hits
system.cpu15.dcache.ReadReq_mshr_hits::total       138649                       # number of ReadReq MSHR hits
system.cpu15.dcache.WriteReq_mshr_hits::switch_cpus15.data          285                       # number of WriteReq MSHR hits
system.cpu15.dcache.WriteReq_mshr_hits::total          285                       # number of WriteReq MSHR hits
system.cpu15.dcache.demand_mshr_hits::switch_cpus15.data       138934                       # number of demand (read+write) MSHR hits
system.cpu15.dcache.demand_mshr_hits::total       138934                       # number of demand (read+write) MSHR hits
system.cpu15.dcache.overall_mshr_hits::switch_cpus15.data       138934                       # number of overall MSHR hits
system.cpu15.dcache.overall_mshr_hits::total       138934                       # number of overall MSHR hits
system.cpu15.dcache.ReadReq_mshr_misses::switch_cpus15.data        55623                       # number of ReadReq MSHR misses
system.cpu15.dcache.ReadReq_mshr_misses::total        55623                       # number of ReadReq MSHR misses
system.cpu15.dcache.WriteReq_mshr_misses::switch_cpus15.data           74                       # number of WriteReq MSHR misses
system.cpu15.dcache.WriteReq_mshr_misses::total           74                       # number of WriteReq MSHR misses
system.cpu15.dcache.demand_mshr_misses::switch_cpus15.data        55697                       # number of demand (read+write) MSHR misses
system.cpu15.dcache.demand_mshr_misses::total        55697                       # number of demand (read+write) MSHR misses
system.cpu15.dcache.overall_mshr_misses::switch_cpus15.data        55697                       # number of overall MSHR misses
system.cpu15.dcache.overall_mshr_misses::total        55697                       # number of overall MSHR misses
system.cpu15.dcache.ReadReq_mshr_miss_latency::switch_cpus15.data   5885236591                       # number of ReadReq MSHR miss cycles
system.cpu15.dcache.ReadReq_mshr_miss_latency::total   5885236591                       # number of ReadReq MSHR miss cycles
system.cpu15.dcache.WriteReq_mshr_miss_latency::switch_cpus15.data      5561958                       # number of WriteReq MSHR miss cycles
system.cpu15.dcache.WriteReq_mshr_miss_latency::total      5561958                       # number of WriteReq MSHR miss cycles
system.cpu15.dcache.demand_mshr_miss_latency::switch_cpus15.data   5890798549                       # number of demand (read+write) MSHR miss cycles
system.cpu15.dcache.demand_mshr_miss_latency::total   5890798549                       # number of demand (read+write) MSHR miss cycles
system.cpu15.dcache.overall_mshr_miss_latency::switch_cpus15.data   5890798549                       # number of overall MSHR miss cycles
system.cpu15.dcache.overall_mshr_miss_latency::total   5890798549                       # number of overall MSHR miss cycles
system.cpu15.dcache.ReadReq_mshr_miss_rate::switch_cpus15.data     0.003018                       # mshr miss rate for ReadReq accesses
system.cpu15.dcache.ReadReq_mshr_miss_rate::total     0.003018                       # mshr miss rate for ReadReq accesses
system.cpu15.dcache.WriteReq_mshr_miss_rate::switch_cpus15.data     0.000021                       # mshr miss rate for WriteReq accesses
system.cpu15.dcache.WriteReq_mshr_miss_rate::total     0.000021                       # mshr miss rate for WriteReq accesses
system.cpu15.dcache.demand_mshr_miss_rate::switch_cpus15.data     0.002540                       # mshr miss rate for demand accesses
system.cpu15.dcache.demand_mshr_miss_rate::total     0.002540                       # mshr miss rate for demand accesses
system.cpu15.dcache.overall_mshr_miss_rate::switch_cpus15.data     0.002540                       # mshr miss rate for overall accesses
system.cpu15.dcache.overall_mshr_miss_rate::total     0.002540                       # mshr miss rate for overall accesses
system.cpu15.dcache.ReadReq_avg_mshr_miss_latency::switch_cpus15.data 105805.810384                       # average ReadReq mshr miss latency
system.cpu15.dcache.ReadReq_avg_mshr_miss_latency::total 105805.810384                       # average ReadReq mshr miss latency
system.cpu15.dcache.WriteReq_avg_mshr_miss_latency::switch_cpus15.data 75161.594595                       # average WriteReq mshr miss latency
system.cpu15.dcache.WriteReq_avg_mshr_miss_latency::total 75161.594595                       # average WriteReq mshr miss latency
system.cpu15.dcache.demand_avg_mshr_miss_latency::switch_cpus15.data 105765.095948                       # average overall mshr miss latency
system.cpu15.dcache.demand_avg_mshr_miss_latency::total 105765.095948                       # average overall mshr miss latency
system.cpu15.dcache.overall_avg_mshr_miss_latency::switch_cpus15.data 105765.095948                       # average overall mshr miss latency
system.cpu15.dcache.overall_avg_mshr_miss_latency::total 105765.095948                       # average overall mshr miss latency
system.cpu15.dcache.no_allocate_misses              0                       # Number of misses that were no-allocate

---------- End Simulation Statistics   ----------
