
---------- Begin Simulation Statistics ----------
sim_seconds                                  0.003332                       # Number of seconds simulated
sim_ticks                                  3331721163                       # Number of ticks simulated
final_tick                               574891293315                       # Number of ticks from beginning of simulation (restored from checkpoints and never reset)
sim_freq                                 1000000000000                       # Frequency of simulated ticks
host_inst_rate                                  79763                       # Simulator instruction rate (inst/s)
host_op_rate                                   109140                       # Simulator op (including micro ops) rate (op/s)
host_tick_rate                                 263115                       # Simulator tick rate (ticks/s)
host_mem_usage                               16880512                       # Number of bytes of host memory used
host_seconds                                 12662.59                       # Real time elapsed on the host
sim_insts                                  1010000004                       # Number of instructions simulated
sim_ops                                    1381990330                       # Number of ops (including micro ops) simulated
system.physmem.bytes_read::switch_cpus.inst         5376                       # Number of bytes read from this memory
system.physmem.bytes_read::switch_cpus.data       268800                       # Number of bytes read from this memory
system.physmem.bytes_read::total               274176                       # Number of bytes read from this memory
system.physmem.bytes_inst_read::switch_cpus.inst         5376                       # Number of instructions bytes read from this memory
system.physmem.bytes_inst_read::total            5376                       # Number of instructions bytes read from this memory
system.physmem.bytes_written::writebacks        40960                       # Number of bytes written to this memory
system.physmem.bytes_written::total             40960                       # Number of bytes written to this memory
system.physmem.num_reads::switch_cpus.inst           42                       # Number of read requests responded to by this memory
system.physmem.num_reads::switch_cpus.data         2100                       # Number of read requests responded to by this memory
system.physmem.num_reads::total                  2142                       # Number of read requests responded to by this memory
system.physmem.num_writes::writebacks             320                       # Number of write requests responded to by this memory
system.physmem.num_writes::functional               0                       # Number of write requests responded to by this memory
system.physmem.num_writes::interrupt                0                       # Number of write requests responded to by this memory
system.physmem.num_writes::switch_cpus.dtb.walker            0                       # Number of write requests responded to by this memory
system.physmem.num_writes::switch_cpus.itb.walker            0                       # Number of write requests responded to by this memory
system.physmem.num_writes::switch_cpus.inst            0                       # Number of write requests responded to by this memory
system.physmem.num_writes::switch_cpus.data            0                       # Number of write requests responded to by this memory
system.physmem.num_writes::cpu.dtb.walker            0                       # Number of write requests responded to by this memory
system.physmem.num_writes::cpu.itb.walker            0                       # Number of write requests responded to by this memory
system.physmem.num_writes::cpu.inst                 0                       # Number of write requests responded to by this memory
system.physmem.num_writes::cpu.data                 0                       # Number of write requests responded to by this memory
system.physmem.num_writes::total                  320                       # Number of write requests responded to by this memory
system.physmem.bw_read::switch_cpus.inst      1613580                       # Total read bandwidth from this memory (bytes/s)
system.physmem.bw_read::switch_cpus.data     80679020                       # Total read bandwidth from this memory (bytes/s)
system.physmem.bw_read::total                82292601                       # Total read bandwidth from this memory (bytes/s)
system.physmem.bw_inst_read::switch_cpus.inst      1613580                       # Instruction read bandwidth from this memory (bytes/s)
system.physmem.bw_inst_read::total            1613580                       # Instruction read bandwidth from this memory (bytes/s)
system.physmem.bw_write::writebacks          12293946                       # Write bandwidth from this memory (bytes/s)
system.physmem.bw_write::total               12293946                       # Write bandwidth from this memory (bytes/s)
system.physmem.bw_total::writebacks          12293946                       # Total bandwidth to/from this memory (bytes/s)
system.physmem.bw_total::switch_cpus.inst      1613580                       # Total bandwidth to/from this memory (bytes/s)
system.physmem.bw_total::switch_cpus.data     80679020                       # Total bandwidth to/from this memory (bytes/s)
system.physmem.bw_total::total               94586547                       # Total bandwidth to/from this memory (bytes/s)
system.switch_cpus.dtb.inst_hits                    0                       # ITB inst hits
system.switch_cpus.dtb.inst_misses                  0                       # ITB inst misses
system.switch_cpus.dtb.read_hits                    0                       # DTB read hits
system.switch_cpus.dtb.read_misses                  0                       # DTB read misses
system.switch_cpus.dtb.write_hits                   0                       # DTB write hits
system.switch_cpus.dtb.write_misses                 0                       # DTB write misses
system.switch_cpus.dtb.flush_tlb                    0                       # Number of times complete TLB was flushed
system.switch_cpus.dtb.flush_tlb_mva                0                       # Number of times TLB was flushed by MVA
system.switch_cpus.dtb.flush_tlb_mva_asid            0                       # Number of times TLB was flushed by MVA & ASID
system.switch_cpus.dtb.flush_tlb_asid               0                       # Number of times TLB was flushed by ASID
system.switch_cpus.dtb.flush_entries                0                       # Number of entries that have been flushed from TLB
system.switch_cpus.dtb.align_faults                 0                       # Number of TLB faults due to alignment restrictions
system.switch_cpus.dtb.prefetch_faults              0                       # Number of TLB faults due to prefetch
system.switch_cpus.dtb.domain_faults                0                       # Number of TLB faults due to domain restrictions
system.switch_cpus.dtb.perms_faults                 0                       # Number of TLB faults due to permissions restrictions
system.switch_cpus.dtb.read_accesses                0                       # DTB read accesses
system.switch_cpus.dtb.write_accesses               0                       # DTB write accesses
system.switch_cpus.dtb.inst_accesses                0                       # ITB inst accesses
system.switch_cpus.dtb.hits                         0                       # DTB hits
system.switch_cpus.dtb.misses                       0                       # DTB misses
system.switch_cpus.dtb.accesses                     0                       # DTB accesses
system.switch_cpus.itb.inst_hits                    0                       # ITB inst hits
system.switch_cpus.itb.inst_misses                  0                       # ITB inst misses
system.switch_cpus.itb.read_hits                    0                       # DTB read hits
system.switch_cpus.itb.read_misses                  0                       # DTB read misses
system.switch_cpus.itb.write_hits                   0                       # DTB write hits
system.switch_cpus.itb.write_misses                 0                       # DTB write misses
system.switch_cpus.itb.flush_tlb                    0                       # Number of times complete TLB was flushed
system.switch_cpus.itb.flush_tlb_mva                0                       # Number of times TLB was flushed by MVA
system.switch_cpus.itb.flush_tlb_mva_asid            0                       # Number of times TLB was flushed by MVA & ASID
system.switch_cpus.itb.flush_tlb_asid               0                       # Number of times TLB was flushed by ASID
system.switch_cpus.itb.flush_entries                0                       # Number of entries that have been flushed from TLB
system.switch_cpus.itb.align_faults                 0                       # Number of TLB faults due to alignment restrictions
system.switch_cpus.itb.prefetch_faults              0                       # Number of TLB faults due to prefetch
system.switch_cpus.itb.domain_faults                0                       # Number of TLB faults due to domain restrictions
system.switch_cpus.itb.perms_faults                 0                       # Number of TLB faults due to permissions restrictions
system.switch_cpus.itb.read_accesses                0                       # DTB read accesses
system.switch_cpus.itb.write_accesses               0                       # DTB write accesses
system.switch_cpus.itb.inst_accesses                0                       # ITB inst accesses
system.switch_cpus.itb.hits                         0                       # DTB hits
system.switch_cpus.itb.misses                       0                       # DTB misses
system.switch_cpus.itb.accesses                     0                       # DTB accesses
system.cpu.workload.num_syscalls                   16                       # Number of system calls
system.switch_cpus.numCycles                  7989740                       # number of cpu cycles simulated
system.switch_cpus.numWorkItemsStarted              0                       # number of work items this cpu started
system.switch_cpus.numWorkItemsCompleted            0                       # number of work items this cpu completed
system.switch_cpus.BPredUnit.lookups          2858380                       # Number of BP lookups
system.switch_cpus.BPredUnit.condPredicted      2490030                       # Number of conditional branches predicted
system.switch_cpus.BPredUnit.condIncorrect       189081                       # Number of conditional branches incorrect
system.switch_cpus.BPredUnit.BTBLookups       1429550                       # Number of BTB lookups
system.switch_cpus.BPredUnit.BTBHits          1381126                       # Number of BTB hits
system.switch_cpus.BPredUnit.BTBCorrect             0                       # Number of correct BTB predictions (this stat may not work properly.
system.switch_cpus.BPredUnit.usedRAS           200751                       # Number of times the RAS was used to get a target.
system.switch_cpus.BPredUnit.RASInCorrect         5761                       # Number of incorrect RAS predictions.
system.switch_cpus.fetch.icacheStallCycles      3495179                       # Number of cycles fetch is stalled on an Icache miss
system.switch_cpus.fetch.Insts               15864920                       # Number of instructions fetch has processed
system.switch_cpus.fetch.Branches             2858380                       # Number of branches that fetch encountered
system.switch_cpus.fetch.predictedBranches      1581877                       # Number of branches that fetch has predicted taken
system.switch_cpus.fetch.Cycles               3360343                       # Number of cycles fetch has run and was not squashing or blocked
system.switch_cpus.fetch.SquashCycles          877220                       # Number of cycles fetch has spent squashing
system.switch_cpus.fetch.BlockedCycles         367006                       # Number of cycles fetch has spent blocked
system.switch_cpus.fetch.MiscStallCycles            1                       # Number of cycles fetch has spent waiting on interrupts, or bad addresses, or out of MSHRs
system.switch_cpus.fetch.PendingTrapStallCycles           14                       # Number of stall cycles due to pending traps
system.switch_cpus.fetch.CacheLines           1718218                       # Number of cache lines fetched
system.switch_cpus.fetch.IcacheSquashes         90174                       # Number of outstanding Icache misses that were squashed
system.switch_cpus.fetch.rateDist::samples      7909452                       # Number of instructions fetched each cycle (Total)
system.switch_cpus.fetch.rateDist::mean      2.313150                       # Number of instructions fetched each cycle (Total)
system.switch_cpus.fetch.rateDist::stdev     3.290927                       # Number of instructions fetched each cycle (Total)
system.switch_cpus.fetch.rateDist::underflows            0      0.00%      0.00% # Number of instructions fetched each cycle (Total)
system.switch_cpus.fetch.rateDist::0          4549109     57.51%     57.51% # Number of instructions fetched each cycle (Total)
system.switch_cpus.fetch.rateDist::1           600053      7.59%     65.10% # Number of instructions fetched each cycle (Total)
system.switch_cpus.fetch.rateDist::2           295617      3.74%     68.84% # Number of instructions fetched each cycle (Total)
system.switch_cpus.fetch.rateDist::3           219546      2.78%     71.61% # Number of instructions fetched each cycle (Total)
system.switch_cpus.fetch.rateDist::4           183646      2.32%     73.94% # Number of instructions fetched each cycle (Total)
system.switch_cpus.fetch.rateDist::5           158260      2.00%     75.94% # Number of instructions fetched each cycle (Total)
system.switch_cpus.fetch.rateDist::6            54878      0.69%     76.63% # Number of instructions fetched each cycle (Total)
system.switch_cpus.fetch.rateDist::7           196070      2.48%     79.11% # Number of instructions fetched each cycle (Total)
system.switch_cpus.fetch.rateDist::8          1652273     20.89%    100.00% # Number of instructions fetched each cycle (Total)
system.switch_cpus.fetch.rateDist::overflows            0      0.00%    100.00% # Number of instructions fetched each cycle (Total)
system.switch_cpus.fetch.rateDist::min_value            0                       # Number of instructions fetched each cycle (Total)
system.switch_cpus.fetch.rateDist::max_value            8                       # Number of instructions fetched each cycle (Total)
system.switch_cpus.fetch.rateDist::total      7909452                       # Number of instructions fetched each cycle (Total)
system.switch_cpus.fetch.branchRate          0.357756                       # Number of branch fetches per cycle
system.switch_cpus.fetch.rate                1.985662                       # Number of inst fetches per cycle
system.switch_cpus.decode.IdleCycles          3619699                       # Number of cycles decode is idle
system.switch_cpus.decode.BlockedCycles        343277                       # Number of cycles decode is blocked
system.switch_cpus.decode.RunCycles           3246085                       # Number of cycles decode is running
system.switch_cpus.decode.UnblockCycles         16377                       # Number of cycles decode is unblocking
system.switch_cpus.decode.SquashCycles         684009                       # Number of cycles decode is squashing
system.switch_cpus.decode.BranchResolved       314673                       # Number of times decode resolved a branch
system.switch_cpus.decode.BranchMispred          2919                       # Number of times decode detected a branch misprediction
system.switch_cpus.decode.DecodedInsts       17740779                       # Number of instructions handled by decode
system.switch_cpus.decode.SquashedInsts          4701                       # Number of squashed instructions handled by decode
system.switch_cpus.rename.SquashCycles         684009                       # Number of cycles rename is squashing
system.switch_cpus.rename.IdleCycles          3770577                       # Number of cycles rename is idle
system.switch_cpus.rename.BlockCycles          155141                       # Number of cycles rename is blocking
system.switch_cpus.rename.serializeStallCycles        44200                       # count of cycles rename stalled for serializing inst
system.switch_cpus.rename.RunCycles           3110010                       # Number of cycles rename is running
system.switch_cpus.rename.UnblockCycles        145510                       # Number of cycles rename is unblocking
system.switch_cpus.rename.RenamedInsts       17182752                       # Number of instructions processed by rename
system.switch_cpus.rename.ROBFullEvents            13                       # Number of times rename has blocked due to ROB full
system.switch_cpus.rename.IQFullEvents          70710                       # Number of times rename has blocked due to IQ full
system.switch_cpus.rename.LSQFullEvents         62060                       # Number of times rename has blocked due to LSQ full
system.switch_cpus.rename.RenamedOperands     22755750                       # Number of destination operands rename has renamed
system.switch_cpus.rename.RenameLookups      78247461                       # Number of register rename lookups that rename has made
system.switch_cpus.rename.int_rename_lookups     78247461                       # Number of integer rename lookups
system.switch_cpus.rename.CommittedMaps      14914593                       # Number of HB maps that are committed
system.switch_cpus.rename.UndoneMaps          7841052                       # Number of HB maps that are undone due to squashing
system.switch_cpus.rename.serializingInsts         2210                       # count of serializing insts renamed
system.switch_cpus.rename.tempSerializingInsts         1208                       # count of temporary serializing insts renamed
system.switch_cpus.rename.skidInsts            370927                       # count of insts added to the skid buffer
system.switch_cpus.memDep0.insertedLoads      2623380                       # Number of loads inserted to the mem dependence unit.
system.switch_cpus.memDep0.insertedStores       600066                       # Number of stores inserted to the mem dependence unit.
system.switch_cpus.memDep0.conflictingLoads         7761                       # Number of conflicting loads.
system.switch_cpus.memDep0.conflictingStores       180762                       # Number of conflicting stores.
system.switch_cpus.iq.iqInstsAdded           16158042                       # Number of instructions added to the IQ (excludes non-spec)
system.switch_cpus.iq.iqNonSpecInstsAdded         2223                       # Number of non-speculative instructions added to the IQ
system.switch_cpus.iq.iqInstsIssued          13776891                       # Number of instructions issued
system.switch_cpus.iq.iqSquashedInstsIssued        18468                       # Number of squashed instructions issued
system.switch_cpus.iq.iqSquashedInstsExamined      4670103                       # Number of squashed instructions iterated over during squash; mainly for profiling
system.switch_cpus.iq.iqSquashedOperandsExamined     12690137                       # Number of squashed operands that are examined and possibly removed from graph
system.switch_cpus.iq.iqSquashedNonSpecRemoved          137                       # Number of squashed non-spec instructions that were removed
system.switch_cpus.iq.issued_per_cycle::samples      7909452                       # Number of insts issued each cycle
system.switch_cpus.iq.issued_per_cycle::mean     1.741826                       # Number of insts issued each cycle
system.switch_cpus.iq.issued_per_cycle::stdev     1.858702                       # Number of insts issued each cycle
system.switch_cpus.iq.issued_per_cycle::underflows            0      0.00%      0.00% # Number of insts issued each cycle
system.switch_cpus.iq.issued_per_cycle::0      2843804     35.95%     35.95% # Number of insts issued each cycle
system.switch_cpus.iq.issued_per_cycle::1      1685543     21.31%     57.26% # Number of insts issued each cycle
system.switch_cpus.iq.issued_per_cycle::2       847147     10.71%     67.98% # Number of insts issued each cycle
system.switch_cpus.iq.issued_per_cycle::3       994811     12.58%     80.55% # Number of insts issued each cycle
system.switch_cpus.iq.issued_per_cycle::4       747692      9.45%     90.01% # Number of insts issued each cycle
system.switch_cpus.iq.issued_per_cycle::5       476223      6.02%     96.03% # Number of insts issued each cycle
system.switch_cpus.iq.issued_per_cycle::6       206081      2.61%     98.63% # Number of insts issued each cycle
system.switch_cpus.iq.issued_per_cycle::7        60956      0.77%     99.40% # Number of insts issued each cycle
system.switch_cpus.iq.issued_per_cycle::8        47195      0.60%    100.00% # Number of insts issued each cycle
system.switch_cpus.iq.issued_per_cycle::overflows            0      0.00%    100.00% # Number of insts issued each cycle
system.switch_cpus.iq.issued_per_cycle::min_value            0                       # Number of insts issued each cycle
system.switch_cpus.iq.issued_per_cycle::max_value            8                       # Number of insts issued each cycle
system.switch_cpus.iq.issued_per_cycle::total      7909452                       # Number of insts issued each cycle
system.switch_cpus.iq.fu_full::No_OpClass            0      0.00%      0.00% # attempts to use FU when none available
system.switch_cpus.iq.fu_full::IntAlu           58917     72.70%     72.70% # attempts to use FU when none available
system.switch_cpus.iq.fu_full::IntMult              0      0.00%     72.70% # attempts to use FU when none available
system.switch_cpus.iq.fu_full::IntDiv               0      0.00%     72.70% # attempts to use FU when none available
system.switch_cpus.iq.fu_full::FloatAdd             0      0.00%     72.70% # attempts to use FU when none available
system.switch_cpus.iq.fu_full::FloatCmp             0      0.00%     72.70% # attempts to use FU when none available
system.switch_cpus.iq.fu_full::FloatCvt             0      0.00%     72.70% # attempts to use FU when none available
system.switch_cpus.iq.fu_full::FloatMult            0      0.00%     72.70% # attempts to use FU when none available
system.switch_cpus.iq.fu_full::FloatDiv             0      0.00%     72.70% # attempts to use FU when none available
system.switch_cpus.iq.fu_full::FloatSqrt            0      0.00%     72.70% # attempts to use FU when none available
system.switch_cpus.iq.fu_full::SimdAdd              0      0.00%     72.70% # attempts to use FU when none available
system.switch_cpus.iq.fu_full::SimdAddAcc            0      0.00%     72.70% # attempts to use FU when none available
system.switch_cpus.iq.fu_full::SimdAlu              0      0.00%     72.70% # attempts to use FU when none available
system.switch_cpus.iq.fu_full::SimdCmp              0      0.00%     72.70% # attempts to use FU when none available
system.switch_cpus.iq.fu_full::SimdCvt              0      0.00%     72.70% # attempts to use FU when none available
system.switch_cpus.iq.fu_full::SimdMisc             0      0.00%     72.70% # attempts to use FU when none available
system.switch_cpus.iq.fu_full::SimdMult             0      0.00%     72.70% # attempts to use FU when none available
system.switch_cpus.iq.fu_full::SimdMultAcc            0      0.00%     72.70% # attempts to use FU when none available
system.switch_cpus.iq.fu_full::SimdShift            0      0.00%     72.70% # attempts to use FU when none available
system.switch_cpus.iq.fu_full::SimdShiftAcc            0      0.00%     72.70% # attempts to use FU when none available
system.switch_cpus.iq.fu_full::SimdSqrt             0      0.00%     72.70% # attempts to use FU when none available
system.switch_cpus.iq.fu_full::SimdFloatAdd            0      0.00%     72.70% # attempts to use FU when none available
system.switch_cpus.iq.fu_full::SimdFloatAlu            0      0.00%     72.70% # attempts to use FU when none available
system.switch_cpus.iq.fu_full::SimdFloatCmp            0      0.00%     72.70% # attempts to use FU when none available
system.switch_cpus.iq.fu_full::SimdFloatCvt            0      0.00%     72.70% # attempts to use FU when none available
system.switch_cpus.iq.fu_full::SimdFloatDiv            0      0.00%     72.70% # attempts to use FU when none available
system.switch_cpus.iq.fu_full::SimdFloatMisc            0      0.00%     72.70% # attempts to use FU when none available
system.switch_cpus.iq.fu_full::SimdFloatMult            0      0.00%     72.70% # attempts to use FU when none available
system.switch_cpus.iq.fu_full::SimdFloatMultAcc            0      0.00%     72.70% # attempts to use FU when none available
system.switch_cpus.iq.fu_full::SimdFloatSqrt            0      0.00%     72.70% # attempts to use FU when none available
system.switch_cpus.iq.fu_full::MemRead          12815     15.81%     88.52% # attempts to use FU when none available
system.switch_cpus.iq.fu_full::MemWrite          9305     11.48%    100.00% # attempts to use FU when none available
system.switch_cpus.iq.fu_full::IprAccess            0      0.00%    100.00% # attempts to use FU when none available
system.switch_cpus.iq.fu_full::InstPrefetch            0      0.00%    100.00% # attempts to use FU when none available
system.switch_cpus.iq.FU_type_0::No_OpClass            0      0.00%      0.00% # Type of FU issued
system.switch_cpus.iq.FU_type_0::IntAlu      10812420     78.48%     78.48% # Type of FU issued
system.switch_cpus.iq.FU_type_0::IntMult       109820      0.80%     79.28% # Type of FU issued
system.switch_cpus.iq.FU_type_0::IntDiv             0      0.00%     79.28% # Type of FU issued
system.switch_cpus.iq.FU_type_0::FloatAdd            0      0.00%     79.28% # Type of FU issued
system.switch_cpus.iq.FU_type_0::FloatCmp            0      0.00%     79.28% # Type of FU issued
system.switch_cpus.iq.FU_type_0::FloatCvt            0      0.00%     79.28% # Type of FU issued
system.switch_cpus.iq.FU_type_0::FloatMult            0      0.00%     79.28% # Type of FU issued
system.switch_cpus.iq.FU_type_0::FloatDiv            0      0.00%     79.28% # Type of FU issued
system.switch_cpus.iq.FU_type_0::FloatSqrt            0      0.00%     79.28% # Type of FU issued
system.switch_cpus.iq.FU_type_0::SimdAdd            0      0.00%     79.28% # Type of FU issued
system.switch_cpus.iq.FU_type_0::SimdAddAcc            0      0.00%     79.28% # Type of FU issued
system.switch_cpus.iq.FU_type_0::SimdAlu            0      0.00%     79.28% # Type of FU issued
system.switch_cpus.iq.FU_type_0::SimdCmp            0      0.00%     79.28% # Type of FU issued
system.switch_cpus.iq.FU_type_0::SimdCvt            0      0.00%     79.28% # Type of FU issued
system.switch_cpus.iq.FU_type_0::SimdMisc            0      0.00%     79.28% # Type of FU issued
system.switch_cpus.iq.FU_type_0::SimdMult            0      0.00%     79.28% # Type of FU issued
system.switch_cpus.iq.FU_type_0::SimdMultAcc            0      0.00%     79.28% # Type of FU issued
system.switch_cpus.iq.FU_type_0::SimdShift            0      0.00%     79.28% # Type of FU issued
system.switch_cpus.iq.FU_type_0::SimdShiftAcc            0      0.00%     79.28% # Type of FU issued
system.switch_cpus.iq.FU_type_0::SimdSqrt            0      0.00%     79.28% # Type of FU issued
system.switch_cpus.iq.FU_type_0::SimdFloatAdd            0      0.00%     79.28% # Type of FU issued
system.switch_cpus.iq.FU_type_0::SimdFloatAlu            0      0.00%     79.28% # Type of FU issued
system.switch_cpus.iq.FU_type_0::SimdFloatCmp            0      0.00%     79.28% # Type of FU issued
system.switch_cpus.iq.FU_type_0::SimdFloatCvt            0      0.00%     79.28% # Type of FU issued
system.switch_cpus.iq.FU_type_0::SimdFloatDiv            0      0.00%     79.28% # Type of FU issued
system.switch_cpus.iq.FU_type_0::SimdFloatMisc          999      0.01%     79.29% # Type of FU issued
system.switch_cpus.iq.FU_type_0::SimdFloatMult            0      0.00%     79.29% # Type of FU issued
system.switch_cpus.iq.FU_type_0::SimdFloatMultAcc            0      0.00%     79.29% # Type of FU issued
system.switch_cpus.iq.FU_type_0::SimdFloatSqrt            0      0.00%     79.29% # Type of FU issued
system.switch_cpus.iq.FU_type_0::MemRead      2354854     17.09%     96.38% # Type of FU issued
system.switch_cpus.iq.FU_type_0::MemWrite       498798      3.62%    100.00% # Type of FU issued
system.switch_cpus.iq.FU_type_0::IprAccess            0      0.00%    100.00% # Type of FU issued
system.switch_cpus.iq.FU_type_0::InstPrefetch            0      0.00%    100.00% # Type of FU issued
system.switch_cpus.iq.FU_type_0::total       13776891                       # Type of FU issued
system.switch_cpus.iq.rate                   1.724323                       # Inst issue rate
system.switch_cpus.iq.fu_busy_cnt               81037                       # FU busy when requested
system.switch_cpus.iq.fu_busy_rate           0.005882                       # FU busy rate (busy events/executed inst)
system.switch_cpus.iq.int_inst_queue_reads     35562736                       # Number of integer instruction queue reads
system.switch_cpus.iq.int_inst_queue_writes     20830497                       # Number of integer instruction queue writes
system.switch_cpus.iq.int_inst_queue_wakeup_accesses     13294913                       # Number of integer instruction queue wakeup accesses
system.switch_cpus.iq.fp_inst_queue_reads            0                       # Number of floating instruction queue reads
system.switch_cpus.iq.fp_inst_queue_writes            0                       # Number of floating instruction queue writes
system.switch_cpus.iq.fp_inst_queue_wakeup_accesses            0                       # Number of floating instruction queue wakeup accesses
system.switch_cpus.iq.int_alu_accesses       13857928                       # Number of integer alu accesses
system.switch_cpus.iq.fp_alu_accesses               0                       # Number of floating point alu accesses
system.switch_cpus.iew.lsq.thread0.forwLoads        22988                       # Number of loads that had data forwarded from stores
system.switch_cpus.iew.lsq.thread0.invAddrLoads            0                       # Number of loads ignored due to an invalid address
system.switch_cpus.iew.lsq.thread0.squashedLoads       738598                       # Number of loads squashed
system.switch_cpus.iew.lsq.thread0.ignoredResponses           69                       # Number of memory responses ignored because the instruction is squashed
system.switch_cpus.iew.lsq.thread0.memOrderViolation          135                       # Number of memory ordering violations
system.switch_cpus.iew.lsq.thread0.squashedStores       157283                       # Number of stores squashed
system.switch_cpus.iew.lsq.thread0.invAddrSwpfs            0                       # Number of software prefetches ignored due to an invalid address
system.switch_cpus.iew.lsq.thread0.blockedLoads            0                       # Number of blocked loads due to partial load-store forwarding
system.switch_cpus.iew.lsq.thread0.rescheduledLoads            0                       # Number of loads that were rescheduled
system.switch_cpus.iew.lsq.thread0.cacheBlocked            0                       # Number of times an access to memory failed due to the cache being blocked
system.switch_cpus.iew.iewIdleCycles                0                       # Number of cycles IEW is idle
system.switch_cpus.iew.iewSquashCycles         684009                       # Number of cycles IEW is squashing
system.switch_cpus.iew.iewBlockCycles           89074                       # Number of cycles IEW is blocking
system.switch_cpus.iew.iewUnblockCycles          7589                       # Number of cycles IEW is unblocking
system.switch_cpus.iew.iewDispatchedInsts     16160267                       # Number of instructions dispatched to IQ
system.switch_cpus.iew.iewDispSquashedInsts        62355                       # Number of squashed instructions skipped by dispatch
system.switch_cpus.iew.iewDispLoadInsts       2623380                       # Number of dispatched load instructions
system.switch_cpus.iew.iewDispStoreInsts       600066                       # Number of dispatched store instructions
system.switch_cpus.iew.iewDispNonSpecInsts         1188                       # Number of dispatched non-speculative instructions
system.switch_cpus.iew.iewIQFullEvents           4076                       # Number of times the IQ has become full, causing a stall
system.switch_cpus.iew.iewLSQFullEvents            51                       # Number of times the LSQ has become full, causing a stall
system.switch_cpus.iew.memOrderViolationEvents          135                       # Number of memory order violations
system.switch_cpus.iew.predictedTakenIncorrect        95295                       # Number of branches that were predicted taken incorrectly
system.switch_cpus.iew.predictedNotTakenIncorrect       112005                       # Number of branches that were predicted not taken incorrectly
system.switch_cpus.iew.branchMispredicts       207300                       # Number of branch mispredicts detected at execute
system.switch_cpus.iew.iewExecutedInsts      13475313                       # Number of executed instructions
system.switch_cpus.iew.iewExecLoadInsts       2252761                       # Number of load instructions executed
system.switch_cpus.iew.iewExecSquashedInsts       301575                       # Number of squashed instructions skipped in execute
system.switch_cpus.iew.exec_swp                     0                       # number of swp insts executed
system.switch_cpus.iew.exec_nop                     2                       # number of nop insts executed
system.switch_cpus.iew.exec_refs              2738447                       # number of memory reference insts executed
system.switch_cpus.iew.exec_branches          2017819                       # Number of branches executed
system.switch_cpus.iew.exec_stores             485686                       # Number of stores executed
system.switch_cpus.iew.exec_rate             1.686577                       # Inst execution rate
system.switch_cpus.iew.wb_sent               13320330                       # cumulative count of insts sent to commit
system.switch_cpus.iew.wb_count              13294913                       # cumulative count of insts written-back
system.switch_cpus.iew.wb_producers           8003107                       # num instructions producing a value
system.switch_cpus.iew.wb_consumers          19738306                       # num instructions consuming a value
system.switch_cpus.iew.wb_penalized                 0                       # number of instrctions required to write to 'other' IQ
system.switch_cpus.iew.wb_rate               1.663998                       # insts written-back per cycle
system.switch_cpus.iew.wb_fanout             0.405461                       # average fanout of values written-back
system.switch_cpus.iew.wb_penalized_rate            0                       # fraction of instructions written-back that wrote to 'other' IQ
system.switch_cpus.commit.commitCommittedInsts     10000003                       # The number of committed instructions
system.switch_cpus.commit.commitCommittedOps     11377309                       # The number of committed instructions
system.switch_cpus.commit.commitSquashedInsts      4783046                       # The number of squashed insts skipped by commit
system.switch_cpus.commit.commitNonSpecStalls         2086                       # The number of times commit has been forced to stall to communicate backwards
system.switch_cpus.commit.branchMispredicts       187312                       # The number of times a branch was mispredicted
system.switch_cpus.commit.committed_per_cycle::samples      7225443                       # Number of insts commited each cycle
system.switch_cpus.commit.committed_per_cycle::mean     1.574618                       # Number of insts commited each cycle
system.switch_cpus.commit.committed_per_cycle::stdev     2.289589                       # Number of insts commited each cycle
system.switch_cpus.commit.committed_per_cycle::underflows            0      0.00%      0.00% # Number of insts commited each cycle
system.switch_cpus.commit.committed_per_cycle::0      3386078     46.86%     46.86% # Number of insts commited each cycle
system.switch_cpus.commit.committed_per_cycle::1      1535758     21.25%     68.12% # Number of insts commited each cycle
system.switch_cpus.commit.committed_per_cycle::2       836938     11.58%     79.70% # Number of insts commited each cycle
system.switch_cpus.commit.committed_per_cycle::3       306084      4.24%     83.94% # Number of insts commited each cycle
system.switch_cpus.commit.committed_per_cycle::4       262234      3.63%     87.57% # Number of insts commited each cycle
system.switch_cpus.commit.committed_per_cycle::5       116342      1.61%     89.18% # Number of insts commited each cycle
system.switch_cpus.commit.committed_per_cycle::6       280268      3.88%     93.06% # Number of insts commited each cycle
system.switch_cpus.commit.committed_per_cycle::7        76759      1.06%     94.12% # Number of insts commited each cycle
system.switch_cpus.commit.committed_per_cycle::8       424982      5.88%    100.00% # Number of insts commited each cycle
system.switch_cpus.commit.committed_per_cycle::overflows            0      0.00%    100.00% # Number of insts commited each cycle
system.switch_cpus.commit.committed_per_cycle::min_value            0                       # Number of insts commited each cycle
system.switch_cpus.commit.committed_per_cycle::max_value            8                       # Number of insts commited each cycle
system.switch_cpus.commit.committed_per_cycle::total      7225443                       # Number of insts commited each cycle
system.switch_cpus.commit.committedInsts     10000003                       # Number of instructions committed
system.switch_cpus.commit.committedOps       11377309                       # Number of ops (including micro ops) committed
system.switch_cpus.commit.swp_count                 0                       # Number of s/w prefetches committed
system.switch_cpus.commit.refs                2327555                       # Number of memory references committed
system.switch_cpus.commit.loads               1884775                       # Number of loads committed
system.switch_cpus.commit.membars                1030                       # Number of memory barriers committed
system.switch_cpus.commit.branches            1779484                       # Number of branches committed
system.switch_cpus.commit.fp_insts                  0                       # Number of committed floating point instructions.
system.switch_cpus.commit.int_insts           9936988                       # Number of committed integer instructions.
system.switch_cpus.commit.function_calls       155199                       # Number of function calls committed.
system.switch_cpus.commit.bw_lim_events        424982                       # number cycles where commit BW limit reached
system.switch_cpus.commit.bw_limited                0                       # number of insts not committed due to BW limits
system.switch_cpus.rob.rob_reads             22960608                       # The number of ROB reads
system.switch_cpus.rob.rob_writes            33005670                       # The number of ROB writes
system.switch_cpus.timesIdled                    3897                       # Number of times that the entire CPU went into an idle state and unscheduled itself
system.switch_cpus.idleCycles                   80288                       # Total number of cycles that the CPU has spent unscheduled due to idling
system.switch_cpus.committedInsts            10000003                       # Number of Instructions Simulated
system.switch_cpus.committedOps              11377309                       # Number of Ops (including micro ops) Simulated
system.switch_cpus.committedInsts_total      10000003                       # Number of Instructions Simulated
system.switch_cpus.cpi                       0.798974                       # CPI: Cycles Per Instruction
system.switch_cpus.cpi_total                 0.798974                       # CPI: Total CPI of All Threads
system.switch_cpus.ipc                       1.251606                       # IPC: Instructions Per Cycle
system.switch_cpus.ipc_total                 1.251606                       # IPC: Total IPC of All Threads
system.switch_cpus.int_regfile_reads         62381718                       # number of integer regfile reads
system.switch_cpus.int_regfile_writes        17450454                       # number of integer regfile writes
system.switch_cpus.misc_regfile_reads        18292292                       # number of misc regfile reads
system.switch_cpus.misc_regfile_writes           2080                       # number of misc regfile writes
system.l2.replacements                           2140                       # number of replacements
system.l2.tagsinuse                       2046.764670                       # Cycle average of tags in use
system.l2.total_refs                           121539                       # Total number of references to valid blocks.
system.l2.sampled_refs                           4186                       # Sample count of references to valid blocks.
system.l2.avg_refs                          29.034639                       # Average number of references to valid blocks.
system.l2.warmup_cycle                              0                       # Cycle when the warmup percentage was hit.
system.l2.occ_blocks::writebacks            29.507380                       # Average occupied blocks per requestor
system.l2.occ_blocks::switch_cpus.inst      28.188745                       # Average occupied blocks per requestor
system.l2.occ_blocks::switch_cpus.data     951.902560                       # Average occupied blocks per requestor
system.l2.occ_blocks::cpu.data            1037.165985                       # Average occupied blocks per requestor
system.l2.occ_percent::writebacks            0.014408                       # Average percentage of cache occupancy
system.l2.occ_percent::switch_cpus.inst      0.013764                       # Average percentage of cache occupancy
system.l2.occ_percent::switch_cpus.data      0.464796                       # Average percentage of cache occupancy
system.l2.occ_percent::cpu.data              0.506429                       # Average percentage of cache occupancy
system.l2.occ_percent::total                 0.999397                       # Average percentage of cache occupancy
system.l2.ReadReq_hits::switch_cpus.inst            4                       # number of ReadReq hits
system.l2.ReadReq_hits::switch_cpus.data         3532                       # number of ReadReq hits
system.l2.ReadReq_hits::total                    3536                       # number of ReadReq hits
system.l2.Writeback_hits::writebacks              824                       # number of Writeback hits
system.l2.Writeback_hits::total                   824                       # number of Writeback hits
system.l2.ReadExReq_hits::switch_cpus.data           48                       # number of ReadExReq hits
system.l2.ReadExReq_hits::total                    48                       # number of ReadExReq hits
system.l2.demand_hits::switch_cpus.inst             4                       # number of demand (read+write) hits
system.l2.demand_hits::switch_cpus.data          3580                       # number of demand (read+write) hits
system.l2.demand_hits::total                     3584                       # number of demand (read+write) hits
system.l2.overall_hits::switch_cpus.inst            4                       # number of overall hits
system.l2.overall_hits::switch_cpus.data         3580                       # number of overall hits
system.l2.overall_hits::total                    3584                       # number of overall hits
system.l2.ReadReq_misses::switch_cpus.inst           42                       # number of ReadReq misses
system.l2.ReadReq_misses::switch_cpus.data         2100                       # number of ReadReq misses
system.l2.ReadReq_misses::total                  2142                       # number of ReadReq misses
system.l2.demand_misses::switch_cpus.inst           42                       # number of demand (read+write) misses
system.l2.demand_misses::switch_cpus.data         2100                       # number of demand (read+write) misses
system.l2.demand_misses::total                   2142                       # number of demand (read+write) misses
system.l2.overall_misses::switch_cpus.inst           42                       # number of overall misses
system.l2.overall_misses::switch_cpus.data         2100                       # number of overall misses
system.l2.overall_misses::total                  2142                       # number of overall misses
system.l2.ReadReq_miss_latency::switch_cpus.inst      2592296                       # number of ReadReq miss cycles
system.l2.ReadReq_miss_latency::switch_cpus.data     83175162                       # number of ReadReq miss cycles
system.l2.ReadReq_miss_latency::total        85767458                       # number of ReadReq miss cycles
system.l2.demand_miss_latency::switch_cpus.inst      2592296                       # number of demand (read+write) miss cycles
system.l2.demand_miss_latency::switch_cpus.data     83175162                       # number of demand (read+write) miss cycles
system.l2.demand_miss_latency::total         85767458                       # number of demand (read+write) miss cycles
system.l2.overall_miss_latency::switch_cpus.inst      2592296                       # number of overall miss cycles
system.l2.overall_miss_latency::switch_cpus.data     83175162                       # number of overall miss cycles
system.l2.overall_miss_latency::total        85767458                       # number of overall miss cycles
system.l2.ReadReq_accesses::switch_cpus.inst           46                       # number of ReadReq accesses(hits+misses)
system.l2.ReadReq_accesses::switch_cpus.data         5632                       # number of ReadReq accesses(hits+misses)
system.l2.ReadReq_accesses::total                5678                       # number of ReadReq accesses(hits+misses)
system.l2.Writeback_accesses::writebacks          824                       # number of Writeback accesses(hits+misses)
system.l2.Writeback_accesses::total               824                       # number of Writeback accesses(hits+misses)
system.l2.ReadExReq_accesses::switch_cpus.data           48                       # number of ReadExReq accesses(hits+misses)
system.l2.ReadExReq_accesses::total                48                       # number of ReadExReq accesses(hits+misses)
system.l2.demand_accesses::switch_cpus.inst           46                       # number of demand (read+write) accesses
system.l2.demand_accesses::switch_cpus.data         5680                       # number of demand (read+write) accesses
system.l2.demand_accesses::total                 5726                       # number of demand (read+write) accesses
system.l2.overall_accesses::switch_cpus.inst           46                       # number of overall (read+write) accesses
system.l2.overall_accesses::switch_cpus.data         5680                       # number of overall (read+write) accesses
system.l2.overall_accesses::total                5726                       # number of overall (read+write) accesses
system.l2.ReadReq_miss_rate::switch_cpus.inst     0.913043                       # miss rate for ReadReq accesses
system.l2.ReadReq_miss_rate::switch_cpus.data     0.372869                       # miss rate for ReadReq accesses
system.l2.ReadReq_miss_rate::total           0.377246                       # miss rate for ReadReq accesses
system.l2.demand_miss_rate::switch_cpus.inst     0.913043                       # miss rate for demand accesses
system.l2.demand_miss_rate::switch_cpus.data     0.369718                       # miss rate for demand accesses
system.l2.demand_miss_rate::total            0.374083                       # miss rate for demand accesses
system.l2.overall_miss_rate::switch_cpus.inst     0.913043                       # miss rate for overall accesses
system.l2.overall_miss_rate::switch_cpus.data     0.369718                       # miss rate for overall accesses
system.l2.overall_miss_rate::total           0.374083                       # miss rate for overall accesses
system.l2.ReadReq_avg_miss_latency::switch_cpus.inst 61721.333333                       # average ReadReq miss latency
system.l2.ReadReq_avg_miss_latency::switch_cpus.data 39607.220000                       # average ReadReq miss latency
system.l2.ReadReq_avg_miss_latency::total 40040.830065                       # average ReadReq miss latency
system.l2.demand_avg_miss_latency::switch_cpus.inst 61721.333333                       # average overall miss latency
system.l2.demand_avg_miss_latency::switch_cpus.data 39607.220000                       # average overall miss latency
system.l2.demand_avg_miss_latency::total 40040.830065                       # average overall miss latency
system.l2.overall_avg_miss_latency::switch_cpus.inst 61721.333333                       # average overall miss latency
system.l2.overall_avg_miss_latency::switch_cpus.data 39607.220000                       # average overall miss latency
system.l2.overall_avg_miss_latency::total 40040.830065                       # average overall miss latency
system.l2.blocked_cycles::no_mshrs                  0                       # number of cycles access was blocked
system.l2.blocked_cycles::no_targets                0                       # number of cycles access was blocked
system.l2.blocked::no_mshrs                         0                       # number of cycles access was blocked
system.l2.blocked::no_targets                       0                       # number of cycles access was blocked
system.l2.avg_blocked_cycles::no_mshrs            nan                       # average number of cycles each access was blocked
system.l2.avg_blocked_cycles::no_targets          nan                       # average number of cycles each access was blocked
system.l2.fast_writes                               0                       # number of fast writes performed
system.l2.cache_copies                              0                       # number of cache copies performed
system.l2.writebacks::writebacks                  320                       # number of writebacks
system.l2.writebacks::total                       320                       # number of writebacks
system.l2.ReadReq_mshr_misses::switch_cpus.inst           42                       # number of ReadReq MSHR misses
system.l2.ReadReq_mshr_misses::switch_cpus.data         2100                       # number of ReadReq MSHR misses
system.l2.ReadReq_mshr_misses::total             2142                       # number of ReadReq MSHR misses
system.l2.demand_mshr_misses::switch_cpus.inst           42                       # number of demand (read+write) MSHR misses
system.l2.demand_mshr_misses::switch_cpus.data         2100                       # number of demand (read+write) MSHR misses
system.l2.demand_mshr_misses::total              2142                       # number of demand (read+write) MSHR misses
system.l2.overall_mshr_misses::switch_cpus.inst           42                       # number of overall MSHR misses
system.l2.overall_mshr_misses::switch_cpus.data         2100                       # number of overall MSHR misses
system.l2.overall_mshr_misses::total             2142                       # number of overall MSHR misses
system.l2.ReadReq_mshr_miss_latency::switch_cpus.inst      2348540                       # number of ReadReq MSHR miss cycles
system.l2.ReadReq_mshr_miss_latency::switch_cpus.data     70985390                       # number of ReadReq MSHR miss cycles
system.l2.ReadReq_mshr_miss_latency::total     73333930                       # number of ReadReq MSHR miss cycles
system.l2.demand_mshr_miss_latency::switch_cpus.inst      2348540                       # number of demand (read+write) MSHR miss cycles
system.l2.demand_mshr_miss_latency::switch_cpus.data     70985390                       # number of demand (read+write) MSHR miss cycles
system.l2.demand_mshr_miss_latency::total     73333930                       # number of demand (read+write) MSHR miss cycles
system.l2.overall_mshr_miss_latency::switch_cpus.inst      2348540                       # number of overall MSHR miss cycles
system.l2.overall_mshr_miss_latency::switch_cpus.data     70985390                       # number of overall MSHR miss cycles
system.l2.overall_mshr_miss_latency::total     73333930                       # number of overall MSHR miss cycles
system.l2.ReadReq_mshr_miss_rate::switch_cpus.inst     0.913043                       # mshr miss rate for ReadReq accesses
system.l2.ReadReq_mshr_miss_rate::switch_cpus.data     0.372869                       # mshr miss rate for ReadReq accesses
system.l2.ReadReq_mshr_miss_rate::total      0.377246                       # mshr miss rate for ReadReq accesses
system.l2.demand_mshr_miss_rate::switch_cpus.inst     0.913043                       # mshr miss rate for demand accesses
system.l2.demand_mshr_miss_rate::switch_cpus.data     0.369718                       # mshr miss rate for demand accesses
system.l2.demand_mshr_miss_rate::total       0.374083                       # mshr miss rate for demand accesses
system.l2.overall_mshr_miss_rate::switch_cpus.inst     0.913043                       # mshr miss rate for overall accesses
system.l2.overall_mshr_miss_rate::switch_cpus.data     0.369718                       # mshr miss rate for overall accesses
system.l2.overall_mshr_miss_rate::total      0.374083                       # mshr miss rate for overall accesses
system.l2.ReadReq_avg_mshr_miss_latency::switch_cpus.inst 55917.619048                       # average ReadReq mshr miss latency
system.l2.ReadReq_avg_mshr_miss_latency::switch_cpus.data 33802.566667                       # average ReadReq mshr miss latency
system.l2.ReadReq_avg_mshr_miss_latency::total 34236.195145                       # average ReadReq mshr miss latency
system.l2.demand_avg_mshr_miss_latency::switch_cpus.inst 55917.619048                       # average overall mshr miss latency
system.l2.demand_avg_mshr_miss_latency::switch_cpus.data 33802.566667                       # average overall mshr miss latency
system.l2.demand_avg_mshr_miss_latency::total 34236.195145                       # average overall mshr miss latency
system.l2.overall_avg_mshr_miss_latency::switch_cpus.inst 55917.619048                       # average overall mshr miss latency
system.l2.overall_avg_mshr_miss_latency::switch_cpus.data 33802.566667                       # average overall mshr miss latency
system.l2.overall_avg_mshr_miss_latency::total 34236.195145                       # average overall mshr miss latency
system.l2.no_allocate_misses                        0                       # Number of misses that were no-allocate
system.cpu.dtb.inst_hits                            0                       # ITB inst hits
system.cpu.dtb.inst_misses                          0                       # ITB inst misses
system.cpu.dtb.read_hits                            0                       # DTB read hits
system.cpu.dtb.read_misses                          0                       # DTB read misses
system.cpu.dtb.write_hits                           0                       # DTB write hits
system.cpu.dtb.write_misses                         0                       # DTB write misses
system.cpu.dtb.flush_tlb                            0                       # Number of times complete TLB was flushed
system.cpu.dtb.flush_tlb_mva                        0                       # Number of times TLB was flushed by MVA
system.cpu.dtb.flush_tlb_mva_asid                   0                       # Number of times TLB was flushed by MVA & ASID
system.cpu.dtb.flush_tlb_asid                       0                       # Number of times TLB was flushed by ASID
system.cpu.dtb.flush_entries                        0                       # Number of entries that have been flushed from TLB
system.cpu.dtb.align_faults                         0                       # Number of TLB faults due to alignment restrictions
system.cpu.dtb.prefetch_faults                      0                       # Number of TLB faults due to prefetch
system.cpu.dtb.domain_faults                        0                       # Number of TLB faults due to domain restrictions
system.cpu.dtb.perms_faults                         0                       # Number of TLB faults due to permissions restrictions
system.cpu.dtb.read_accesses                        0                       # DTB read accesses
system.cpu.dtb.write_accesses                       0                       # DTB write accesses
system.cpu.dtb.inst_accesses                        0                       # ITB inst accesses
system.cpu.dtb.hits                                 0                       # DTB hits
system.cpu.dtb.misses                               0                       # DTB misses
system.cpu.dtb.accesses                             0                       # DTB accesses
system.cpu.itb.inst_hits                            0                       # ITB inst hits
system.cpu.itb.inst_misses                          0                       # ITB inst misses
system.cpu.itb.read_hits                            0                       # DTB read hits
system.cpu.itb.read_misses                          0                       # DTB read misses
system.cpu.itb.write_hits                           0                       # DTB write hits
system.cpu.itb.write_misses                         0                       # DTB write misses
system.cpu.itb.flush_tlb                            0                       # Number of times complete TLB was flushed
system.cpu.itb.flush_tlb_mva                        0                       # Number of times TLB was flushed by MVA
system.cpu.itb.flush_tlb_mva_asid                   0                       # Number of times TLB was flushed by MVA & ASID
system.cpu.itb.flush_tlb_asid                       0                       # Number of times TLB was flushed by ASID
system.cpu.itb.flush_entries                        0                       # Number of entries that have been flushed from TLB
system.cpu.itb.align_faults                         0                       # Number of TLB faults due to alignment restrictions
system.cpu.itb.prefetch_faults                      0                       # Number of TLB faults due to prefetch
system.cpu.itb.domain_faults                        0                       # Number of TLB faults due to domain restrictions
system.cpu.itb.perms_faults                         0                       # Number of TLB faults due to permissions restrictions
system.cpu.itb.read_accesses                        0                       # DTB read accesses
system.cpu.itb.write_accesses                       0                       # DTB write accesses
system.cpu.itb.inst_accesses                        0                       # ITB inst accesses
system.cpu.itb.hits                                 0                       # DTB hits
system.cpu.itb.misses                               0                       # DTB misses
system.cpu.itb.accesses                             0                       # DTB accesses
system.cpu.numCycles                                0                       # number of cpu cycles simulated
system.cpu.numWorkItemsStarted                      0                       # number of work items this cpu started
system.cpu.numWorkItemsCompleted                    0                       # number of work items this cpu completed
system.cpu.committedInsts                           0                       # Number of instructions committed
system.cpu.committedOps                             0                       # Number of ops (including micro ops) committed
system.cpu.num_int_alu_accesses                     0                       # Number of integer alu accesses
system.cpu.num_fp_alu_accesses                      0                       # Number of float alu accesses
system.cpu.num_func_calls                           0                       # number of times a function call or return occured
system.cpu.num_conditional_control_insts            0                       # number of instructions that are conditional controls
system.cpu.num_int_insts                            0                       # number of integer instructions
system.cpu.num_fp_insts                             0                       # number of float instructions
system.cpu.num_int_register_reads                   0                       # number of times the integer registers were read
system.cpu.num_int_register_writes                  0                       # number of times the integer registers were written
system.cpu.num_fp_register_reads                    0                       # number of times the floating registers were read
system.cpu.num_fp_register_writes                   0                       # number of times the floating registers were written
system.cpu.num_mem_refs                             0                       # number of memory refs
system.cpu.num_load_insts                           0                       # Number of load instructions
system.cpu.num_store_insts                          0                       # Number of store instructions
system.cpu.num_idle_cycles                          0                       # Number of idle cycles
system.cpu.num_busy_cycles                          0                       # Number of busy cycles
system.cpu.not_idle_fraction                        1                       # Percentage of non-idle cycles
system.cpu.idle_fraction                            0                       # Percentage of idle cycles
system.cpu.icache.replacements                      4                       # number of replacements
system.cpu.icache.tagsinuse                557.076102                       # Cycle average of tags in use
system.cpu.icache.total_refs               1001751080                       # Total number of references to valid blocks.
system.cpu.icache.sampled_refs                    564                       # Sample count of references to valid blocks.
system.cpu.icache.avg_refs               1776154.397163                       # Average number of references to valid blocks.
system.cpu.icache.warmup_cycle                      0                       # Cycle when the warmup percentage was hit.
system.cpu.icache.occ_blocks::switch_cpus.inst    41.872760                       # Average occupied blocks per requestor
system.cpu.icache.occ_blocks::cpu.inst     515.203342                       # Average occupied blocks per requestor
system.cpu.icache.occ_percent::switch_cpus.inst     0.067104                       # Average percentage of cache occupancy
system.cpu.icache.occ_percent::cpu.inst      0.825646                       # Average percentage of cache occupancy
system.cpu.icache.occ_percent::total         0.892750                       # Average percentage of cache occupancy
system.cpu.icache.ReadReq_hits::switch_cpus.inst      1718161                       # number of ReadReq hits
system.cpu.icache.ReadReq_hits::total         1718161                       # number of ReadReq hits
system.cpu.icache.demand_hits::switch_cpus.inst      1718161                       # number of demand (read+write) hits
system.cpu.icache.demand_hits::total          1718161                       # number of demand (read+write) hits
system.cpu.icache.overall_hits::switch_cpus.inst      1718161                       # number of overall hits
system.cpu.icache.overall_hits::total         1718161                       # number of overall hits
system.cpu.icache.ReadReq_misses::switch_cpus.inst           57                       # number of ReadReq misses
system.cpu.icache.ReadReq_misses::total            57                       # number of ReadReq misses
system.cpu.icache.demand_misses::switch_cpus.inst           57                       # number of demand (read+write) misses
system.cpu.icache.demand_misses::total             57                       # number of demand (read+write) misses
system.cpu.icache.overall_misses::switch_cpus.inst           57                       # number of overall misses
system.cpu.icache.overall_misses::total            57                       # number of overall misses
system.cpu.icache.ReadReq_miss_latency::switch_cpus.inst      3587209                       # number of ReadReq miss cycles
system.cpu.icache.ReadReq_miss_latency::total      3587209                       # number of ReadReq miss cycles
system.cpu.icache.demand_miss_latency::switch_cpus.inst      3587209                       # number of demand (read+write) miss cycles
system.cpu.icache.demand_miss_latency::total      3587209                       # number of demand (read+write) miss cycles
system.cpu.icache.overall_miss_latency::switch_cpus.inst      3587209                       # number of overall miss cycles
system.cpu.icache.overall_miss_latency::total      3587209                       # number of overall miss cycles
system.cpu.icache.ReadReq_accesses::switch_cpus.inst      1718218                       # number of ReadReq accesses(hits+misses)
system.cpu.icache.ReadReq_accesses::total      1718218                       # number of ReadReq accesses(hits+misses)
system.cpu.icache.demand_accesses::switch_cpus.inst      1718218                       # number of demand (read+write) accesses
system.cpu.icache.demand_accesses::total      1718218                       # number of demand (read+write) accesses
system.cpu.icache.overall_accesses::switch_cpus.inst      1718218                       # number of overall (read+write) accesses
system.cpu.icache.overall_accesses::total      1718218                       # number of overall (read+write) accesses
system.cpu.icache.ReadReq_miss_rate::switch_cpus.inst     0.000033                       # miss rate for ReadReq accesses
system.cpu.icache.ReadReq_miss_rate::total     0.000033                       # miss rate for ReadReq accesses
system.cpu.icache.demand_miss_rate::switch_cpus.inst     0.000033                       # miss rate for demand accesses
system.cpu.icache.demand_miss_rate::total     0.000033                       # miss rate for demand accesses
system.cpu.icache.overall_miss_rate::switch_cpus.inst     0.000033                       # miss rate for overall accesses
system.cpu.icache.overall_miss_rate::total     0.000033                       # miss rate for overall accesses
system.cpu.icache.ReadReq_avg_miss_latency::switch_cpus.inst 62933.491228                       # average ReadReq miss latency
system.cpu.icache.ReadReq_avg_miss_latency::total 62933.491228                       # average ReadReq miss latency
system.cpu.icache.demand_avg_miss_latency::switch_cpus.inst 62933.491228                       # average overall miss latency
system.cpu.icache.demand_avg_miss_latency::total 62933.491228                       # average overall miss latency
system.cpu.icache.overall_avg_miss_latency::switch_cpus.inst 62933.491228                       # average overall miss latency
system.cpu.icache.overall_avg_miss_latency::total 62933.491228                       # average overall miss latency
system.cpu.icache.blocked_cycles::no_mshrs            0                       # number of cycles access was blocked
system.cpu.icache.blocked_cycles::no_targets            0                       # number of cycles access was blocked
system.cpu.icache.blocked::no_mshrs                 0                       # number of cycles access was blocked
system.cpu.icache.blocked::no_targets               0                       # number of cycles access was blocked
system.cpu.icache.avg_blocked_cycles::no_mshrs          nan                       # average number of cycles each access was blocked
system.cpu.icache.avg_blocked_cycles::no_targets          nan                       # average number of cycles each access was blocked
system.cpu.icache.fast_writes                       0                       # number of fast writes performed
system.cpu.icache.cache_copies                      0                       # number of cache copies performed
system.cpu.icache.ReadReq_mshr_hits::switch_cpus.inst           11                       # number of ReadReq MSHR hits
system.cpu.icache.ReadReq_mshr_hits::total           11                       # number of ReadReq MSHR hits
system.cpu.icache.demand_mshr_hits::switch_cpus.inst           11                       # number of demand (read+write) MSHR hits
system.cpu.icache.demand_mshr_hits::total           11                       # number of demand (read+write) MSHR hits
system.cpu.icache.overall_mshr_hits::switch_cpus.inst           11                       # number of overall MSHR hits
system.cpu.icache.overall_mshr_hits::total           11                       # number of overall MSHR hits
system.cpu.icache.ReadReq_mshr_misses::switch_cpus.inst           46                       # number of ReadReq MSHR misses
system.cpu.icache.ReadReq_mshr_misses::total           46                       # number of ReadReq MSHR misses
system.cpu.icache.demand_mshr_misses::switch_cpus.inst           46                       # number of demand (read+write) MSHR misses
system.cpu.icache.demand_mshr_misses::total           46                       # number of demand (read+write) MSHR misses
system.cpu.icache.overall_mshr_misses::switch_cpus.inst           46                       # number of overall MSHR misses
system.cpu.icache.overall_mshr_misses::total           46                       # number of overall MSHR misses
system.cpu.icache.ReadReq_mshr_miss_latency::switch_cpus.inst      2977493                       # number of ReadReq MSHR miss cycles
system.cpu.icache.ReadReq_mshr_miss_latency::total      2977493                       # number of ReadReq MSHR miss cycles
system.cpu.icache.demand_mshr_miss_latency::switch_cpus.inst      2977493                       # number of demand (read+write) MSHR miss cycles
system.cpu.icache.demand_mshr_miss_latency::total      2977493                       # number of demand (read+write) MSHR miss cycles
system.cpu.icache.overall_mshr_miss_latency::switch_cpus.inst      2977493                       # number of overall MSHR miss cycles
system.cpu.icache.overall_mshr_miss_latency::total      2977493                       # number of overall MSHR miss cycles
system.cpu.icache.ReadReq_mshr_miss_rate::switch_cpus.inst     0.000027                       # mshr miss rate for ReadReq accesses
system.cpu.icache.ReadReq_mshr_miss_rate::total     0.000027                       # mshr miss rate for ReadReq accesses
system.cpu.icache.demand_mshr_miss_rate::switch_cpus.inst     0.000027                       # mshr miss rate for demand accesses
system.cpu.icache.demand_mshr_miss_rate::total     0.000027                       # mshr miss rate for demand accesses
system.cpu.icache.overall_mshr_miss_rate::switch_cpus.inst     0.000027                       # mshr miss rate for overall accesses
system.cpu.icache.overall_mshr_miss_rate::total     0.000027                       # mshr miss rate for overall accesses
system.cpu.icache.ReadReq_avg_mshr_miss_latency::switch_cpus.inst 64728.108696                       # average ReadReq mshr miss latency
system.cpu.icache.ReadReq_avg_mshr_miss_latency::total 64728.108696                       # average ReadReq mshr miss latency
system.cpu.icache.demand_avg_mshr_miss_latency::switch_cpus.inst 64728.108696                       # average overall mshr miss latency
system.cpu.icache.demand_avg_mshr_miss_latency::total 64728.108696                       # average overall mshr miss latency
system.cpu.icache.overall_avg_mshr_miss_latency::switch_cpus.inst 64728.108696                       # average overall mshr miss latency
system.cpu.icache.overall_avg_mshr_miss_latency::total 64728.108696                       # average overall mshr miss latency
system.cpu.icache.no_allocate_misses                0                       # Number of misses that were no-allocate
system.cpu.dcache.replacements                   5680                       # number of replacements
system.cpu.dcache.tagsinuse                       256                       # Cycle average of tags in use
system.cpu.dcache.total_refs                223023938                       # Total number of references to valid blocks.
system.cpu.dcache.sampled_refs                   5936                       # Sample count of references to valid blocks.
system.cpu.dcache.avg_refs               37571.418127                       # Average number of references to valid blocks.
system.cpu.dcache.warmup_cycle                      0                       # Cycle when the warmup percentage was hit.
system.cpu.dcache.occ_blocks::switch_cpus.data   199.995563                       # Average occupied blocks per requestor
system.cpu.dcache.occ_blocks::cpu.data      56.004437                       # Average occupied blocks per requestor
system.cpu.dcache.occ_percent::switch_cpus.data     0.781233                       # Average percentage of cache occupancy
system.cpu.dcache.occ_percent::cpu.data      0.218767                       # Average percentage of cache occupancy
system.cpu.dcache.occ_percent::total                1                       # Average percentage of cache occupancy
system.cpu.dcache.ReadReq_hits::switch_cpus.data      2049087                       # number of ReadReq hits
system.cpu.dcache.ReadReq_hits::total         2049087                       # number of ReadReq hits
system.cpu.dcache.WriteReq_hits::switch_cpus.data       440420                       # number of WriteReq hits
system.cpu.dcache.WriteReq_hits::total         440420                       # number of WriteReq hits
system.cpu.dcache.LoadLockedReq_hits::switch_cpus.data         1153                       # number of LoadLockedReq hits
system.cpu.dcache.LoadLockedReq_hits::total         1153                       # number of LoadLockedReq hits
system.cpu.dcache.StoreCondReq_hits::switch_cpus.data         1040                       # number of StoreCondReq hits
system.cpu.dcache.StoreCondReq_hits::total         1040                       # number of StoreCondReq hits
system.cpu.dcache.demand_hits::switch_cpus.data      2489507                       # number of demand (read+write) hits
system.cpu.dcache.demand_hits::total          2489507                       # number of demand (read+write) hits
system.cpu.dcache.overall_hits::switch_cpus.data      2489507                       # number of overall hits
system.cpu.dcache.overall_hits::total         2489507                       # number of overall hits
system.cpu.dcache.ReadReq_misses::switch_cpus.data        18304                       # number of ReadReq misses
system.cpu.dcache.ReadReq_misses::total         18304                       # number of ReadReq misses
system.cpu.dcache.WriteReq_misses::switch_cpus.data          144                       # number of WriteReq misses
system.cpu.dcache.WriteReq_misses::total          144                       # number of WriteReq misses
system.cpu.dcache.demand_misses::switch_cpus.data        18448                       # number of demand (read+write) misses
system.cpu.dcache.demand_misses::total          18448                       # number of demand (read+write) misses
system.cpu.dcache.overall_misses::switch_cpus.data        18448                       # number of overall misses
system.cpu.dcache.overall_misses::total         18448                       # number of overall misses
system.cpu.dcache.ReadReq_miss_latency::switch_cpus.data    655584818                       # number of ReadReq miss cycles
system.cpu.dcache.ReadReq_miss_latency::total    655584818                       # number of ReadReq miss cycles
system.cpu.dcache.WriteReq_miss_latency::switch_cpus.data      4868386                       # number of WriteReq miss cycles
system.cpu.dcache.WriteReq_miss_latency::total      4868386                       # number of WriteReq miss cycles
system.cpu.dcache.demand_miss_latency::switch_cpus.data    660453204                       # number of demand (read+write) miss cycles
system.cpu.dcache.demand_miss_latency::total    660453204                       # number of demand (read+write) miss cycles
system.cpu.dcache.overall_miss_latency::switch_cpus.data    660453204                       # number of overall miss cycles
system.cpu.dcache.overall_miss_latency::total    660453204                       # number of overall miss cycles
system.cpu.dcache.ReadReq_accesses::switch_cpus.data      2067391                       # number of ReadReq accesses(hits+misses)
system.cpu.dcache.ReadReq_accesses::total      2067391                       # number of ReadReq accesses(hits+misses)
system.cpu.dcache.WriteReq_accesses::switch_cpus.data       440564                       # number of WriteReq accesses(hits+misses)
system.cpu.dcache.WriteReq_accesses::total       440564                       # number of WriteReq accesses(hits+misses)
system.cpu.dcache.LoadLockedReq_accesses::switch_cpus.data         1153                       # number of LoadLockedReq accesses(hits+misses)
system.cpu.dcache.LoadLockedReq_accesses::total         1153                       # number of LoadLockedReq accesses(hits+misses)
system.cpu.dcache.StoreCondReq_accesses::switch_cpus.data         1040                       # number of StoreCondReq accesses(hits+misses)
system.cpu.dcache.StoreCondReq_accesses::total         1040                       # number of StoreCondReq accesses(hits+misses)
system.cpu.dcache.demand_accesses::switch_cpus.data      2507955                       # number of demand (read+write) accesses
system.cpu.dcache.demand_accesses::total      2507955                       # number of demand (read+write) accesses
system.cpu.dcache.overall_accesses::switch_cpus.data      2507955                       # number of overall (read+write) accesses
system.cpu.dcache.overall_accesses::total      2507955                       # number of overall (read+write) accesses
system.cpu.dcache.ReadReq_miss_rate::switch_cpus.data     0.008854                       # miss rate for ReadReq accesses
system.cpu.dcache.ReadReq_miss_rate::total     0.008854                       # miss rate for ReadReq accesses
system.cpu.dcache.WriteReq_miss_rate::switch_cpus.data     0.000327                       # miss rate for WriteReq accesses
system.cpu.dcache.WriteReq_miss_rate::total     0.000327                       # miss rate for WriteReq accesses
system.cpu.dcache.demand_miss_rate::switch_cpus.data     0.007356                       # miss rate for demand accesses
system.cpu.dcache.demand_miss_rate::total     0.007356                       # miss rate for demand accesses
system.cpu.dcache.overall_miss_rate::switch_cpus.data     0.007356                       # miss rate for overall accesses
system.cpu.dcache.overall_miss_rate::total     0.007356                       # miss rate for overall accesses
system.cpu.dcache.ReadReq_avg_miss_latency::switch_cpus.data 35816.478256                       # average ReadReq miss latency
system.cpu.dcache.ReadReq_avg_miss_latency::total 35816.478256                       # average ReadReq miss latency
system.cpu.dcache.WriteReq_avg_miss_latency::switch_cpus.data 33808.236111                       # average WriteReq miss latency
system.cpu.dcache.WriteReq_avg_miss_latency::total 33808.236111                       # average WriteReq miss latency
system.cpu.dcache.demand_avg_miss_latency::switch_cpus.data 35800.802472                       # average overall miss latency
system.cpu.dcache.demand_avg_miss_latency::total 35800.802472                       # average overall miss latency
system.cpu.dcache.overall_avg_miss_latency::switch_cpus.data 35800.802472                       # average overall miss latency
system.cpu.dcache.overall_avg_miss_latency::total 35800.802472                       # average overall miss latency
system.cpu.dcache.blocked_cycles::no_mshrs            0                       # number of cycles access was blocked
system.cpu.dcache.blocked_cycles::no_targets            0                       # number of cycles access was blocked
system.cpu.dcache.blocked::no_mshrs                 0                       # number of cycles access was blocked
system.cpu.dcache.blocked::no_targets               0                       # number of cycles access was blocked
system.cpu.dcache.avg_blocked_cycles::no_mshrs          nan                       # average number of cycles each access was blocked
system.cpu.dcache.avg_blocked_cycles::no_targets          nan                       # average number of cycles each access was blocked
system.cpu.dcache.fast_writes                       0                       # number of fast writes performed
system.cpu.dcache.cache_copies                      0                       # number of cache copies performed
system.cpu.dcache.writebacks::writebacks          824                       # number of writebacks
system.cpu.dcache.writebacks::total               824                       # number of writebacks
system.cpu.dcache.ReadReq_mshr_hits::switch_cpus.data        12672                       # number of ReadReq MSHR hits
system.cpu.dcache.ReadReq_mshr_hits::total        12672                       # number of ReadReq MSHR hits
system.cpu.dcache.WriteReq_mshr_hits::switch_cpus.data           96                       # number of WriteReq MSHR hits
system.cpu.dcache.WriteReq_mshr_hits::total           96                       # number of WriteReq MSHR hits
system.cpu.dcache.demand_mshr_hits::switch_cpus.data        12768                       # number of demand (read+write) MSHR hits
system.cpu.dcache.demand_mshr_hits::total        12768                       # number of demand (read+write) MSHR hits
system.cpu.dcache.overall_mshr_hits::switch_cpus.data        12768                       # number of overall MSHR hits
system.cpu.dcache.overall_mshr_hits::total        12768                       # number of overall MSHR hits
system.cpu.dcache.ReadReq_mshr_misses::switch_cpus.data         5632                       # number of ReadReq MSHR misses
system.cpu.dcache.ReadReq_mshr_misses::total         5632                       # number of ReadReq MSHR misses
system.cpu.dcache.WriteReq_mshr_misses::switch_cpus.data           48                       # number of WriteReq MSHR misses
system.cpu.dcache.WriteReq_mshr_misses::total           48                       # number of WriteReq MSHR misses
system.cpu.dcache.demand_mshr_misses::switch_cpus.data         5680                       # number of demand (read+write) MSHR misses
system.cpu.dcache.demand_mshr_misses::total         5680                       # number of demand (read+write) MSHR misses
system.cpu.dcache.overall_mshr_misses::switch_cpus.data         5680                       # number of overall MSHR misses
system.cpu.dcache.overall_mshr_misses::total         5680                       # number of overall MSHR misses
system.cpu.dcache.ReadReq_mshr_miss_latency::switch_cpus.data    116154492                       # number of ReadReq MSHR miss cycles
system.cpu.dcache.ReadReq_mshr_miss_latency::total    116154492                       # number of ReadReq MSHR miss cycles
system.cpu.dcache.WriteReq_mshr_miss_latency::switch_cpus.data      1107898                       # number of WriteReq MSHR miss cycles
system.cpu.dcache.WriteReq_mshr_miss_latency::total      1107898                       # number of WriteReq MSHR miss cycles
system.cpu.dcache.demand_mshr_miss_latency::switch_cpus.data    117262390                       # number of demand (read+write) MSHR miss cycles
system.cpu.dcache.demand_mshr_miss_latency::total    117262390                       # number of demand (read+write) MSHR miss cycles
system.cpu.dcache.overall_mshr_miss_latency::switch_cpus.data    117262390                       # number of overall MSHR miss cycles
system.cpu.dcache.overall_mshr_miss_latency::total    117262390                       # number of overall MSHR miss cycles
system.cpu.dcache.ReadReq_mshr_miss_rate::switch_cpus.data     0.002724                       # mshr miss rate for ReadReq accesses
system.cpu.dcache.ReadReq_mshr_miss_rate::total     0.002724                       # mshr miss rate for ReadReq accesses
system.cpu.dcache.WriteReq_mshr_miss_rate::switch_cpus.data     0.000109                       # mshr miss rate for WriteReq accesses
system.cpu.dcache.WriteReq_mshr_miss_rate::total     0.000109                       # mshr miss rate for WriteReq accesses
system.cpu.dcache.demand_mshr_miss_rate::switch_cpus.data     0.002265                       # mshr miss rate for demand accesses
system.cpu.dcache.demand_mshr_miss_rate::total     0.002265                       # mshr miss rate for demand accesses
system.cpu.dcache.overall_mshr_miss_rate::switch_cpus.data     0.002265                       # mshr miss rate for overall accesses
system.cpu.dcache.overall_mshr_miss_rate::total     0.002265                       # mshr miss rate for overall accesses
system.cpu.dcache.ReadReq_avg_mshr_miss_latency::switch_cpus.data 20624.022017                       # average ReadReq mshr miss latency
system.cpu.dcache.ReadReq_avg_mshr_miss_latency::total 20624.022017                       # average ReadReq mshr miss latency
system.cpu.dcache.WriteReq_avg_mshr_miss_latency::switch_cpus.data 23081.208333                       # average WriteReq mshr miss latency
system.cpu.dcache.WriteReq_avg_mshr_miss_latency::total 23081.208333                       # average WriteReq mshr miss latency
system.cpu.dcache.demand_avg_mshr_miss_latency::switch_cpus.data 20644.786972                       # average overall mshr miss latency
system.cpu.dcache.demand_avg_mshr_miss_latency::total 20644.786972                       # average overall mshr miss latency
system.cpu.dcache.overall_avg_mshr_miss_latency::switch_cpus.data 20644.786972                       # average overall mshr miss latency
system.cpu.dcache.overall_avg_mshr_miss_latency::total 20644.786972                       # average overall mshr miss latency
system.cpu.dcache.no_allocate_misses                0                       # Number of misses that were no-allocate

---------- End Simulation Statistics   ----------
