
---------- Begin Simulation Statistics ----------
sim_seconds                                  0.035396                       # Number of seconds simulated
sim_ticks                                 35395808178                       # Number of ticks simulated
final_tick                               564960188115                       # Number of ticks from beginning of simulation (restored from checkpoints and never reset)
sim_freq                                 1000000000000                       # Frequency of simulated ticks
host_inst_rate                                 265614                       # Simulator instruction rate (inst/s)
host_op_rate                                   341798                       # Simulator op (including micro ops) rate (op/s)
host_tick_rate                                2170257                       # Simulator tick rate (ticks/s)
host_mem_usage                               16930776                       # Number of bytes of host memory used
host_seconds                                 16309.50                       # Real time elapsed on the host
sim_insts                                  4332028181                       # Number of instructions simulated
sim_ops                                    5574559606                       # Number of ops (including micro ops) simulated
system.physmem.bytes_read::switch_cpus0.inst         1280                       # Number of bytes read from this memory
system.physmem.bytes_read::switch_cpus0.data      1341952                       # Number of bytes read from this memory
system.physmem.bytes_read::switch_cpus1.inst         1920                       # Number of bytes read from this memory
system.physmem.bytes_read::switch_cpus1.data      1565184                       # Number of bytes read from this memory
system.physmem.bytes_read::switch_cpus2.inst         2176                       # Number of bytes read from this memory
system.physmem.bytes_read::switch_cpus2.data       525312                       # Number of bytes read from this memory
system.physmem.bytes_read::switch_cpus3.inst         1664                       # Number of bytes read from this memory
system.physmem.bytes_read::switch_cpus3.data       881792                       # Number of bytes read from this memory
system.physmem.bytes_read::total              4321280                       # Number of bytes read from this memory
system.physmem.bytes_inst_read::switch_cpus0.inst         1280                       # Number of instructions bytes read from this memory
system.physmem.bytes_inst_read::switch_cpus1.inst         1920                       # Number of instructions bytes read from this memory
system.physmem.bytes_inst_read::switch_cpus2.inst         2176                       # Number of instructions bytes read from this memory
system.physmem.bytes_inst_read::switch_cpus3.inst         1664                       # Number of instructions bytes read from this memory
system.physmem.bytes_inst_read::total            7040                       # Number of instructions bytes read from this memory
system.physmem.bytes_written::writebacks      1821056                       # Number of bytes written to this memory
system.physmem.bytes_written::total           1821056                       # Number of bytes written to this memory
system.physmem.num_reads::switch_cpus0.inst           10                       # Number of read requests responded to by this memory
system.physmem.num_reads::switch_cpus0.data        10484                       # Number of read requests responded to by this memory
system.physmem.num_reads::switch_cpus1.inst           15                       # Number of read requests responded to by this memory
system.physmem.num_reads::switch_cpus1.data        12228                       # Number of read requests responded to by this memory
system.physmem.num_reads::switch_cpus2.inst           17                       # Number of read requests responded to by this memory
system.physmem.num_reads::switch_cpus2.data         4104                       # Number of read requests responded to by this memory
system.physmem.num_reads::switch_cpus3.inst           13                       # Number of read requests responded to by this memory
system.physmem.num_reads::switch_cpus3.data         6889                       # Number of read requests responded to by this memory
system.physmem.num_reads::total                 33760                       # Number of read requests responded to by this memory
system.physmem.num_writes::writebacks           14227                       # Number of write requests responded to by this memory
system.physmem.num_writes::functional               0                       # Number of write requests responded to by this memory
system.physmem.num_writes::interrupt                0                       # Number of write requests responded to by this memory
system.physmem.num_writes::switch_cpus0.dtb.walker            0                       # Number of write requests responded to by this memory
system.physmem.num_writes::switch_cpus0.itb.walker            0                       # Number of write requests responded to by this memory
system.physmem.num_writes::switch_cpus0.inst            0                       # Number of write requests responded to by this memory
system.physmem.num_writes::switch_cpus0.data            0                       # Number of write requests responded to by this memory
system.physmem.num_writes::switch_cpus1.dtb.walker            0                       # Number of write requests responded to by this memory
system.physmem.num_writes::switch_cpus1.itb.walker            0                       # Number of write requests responded to by this memory
system.physmem.num_writes::switch_cpus1.inst            0                       # Number of write requests responded to by this memory
system.physmem.num_writes::switch_cpus1.data            0                       # Number of write requests responded to by this memory
system.physmem.num_writes::switch_cpus2.dtb.walker            0                       # Number of write requests responded to by this memory
system.physmem.num_writes::switch_cpus2.itb.walker            0                       # Number of write requests responded to by this memory
system.physmem.num_writes::switch_cpus2.inst            0                       # Number of write requests responded to by this memory
system.physmem.num_writes::switch_cpus2.data            0                       # Number of write requests responded to by this memory
system.physmem.num_writes::switch_cpus3.dtb.walker            0                       # Number of write requests responded to by this memory
system.physmem.num_writes::switch_cpus3.itb.walker            0                       # Number of write requests responded to by this memory
system.physmem.num_writes::switch_cpus3.inst            0                       # Number of write requests responded to by this memory
system.physmem.num_writes::switch_cpus3.data            0                       # Number of write requests responded to by this memory
system.physmem.num_writes::cpu0.dtb.walker            0                       # Number of write requests responded to by this memory
system.physmem.num_writes::cpu0.itb.walker            0                       # Number of write requests responded to by this memory
system.physmem.num_writes::cpu0.inst                0                       # Number of write requests responded to by this memory
system.physmem.num_writes::cpu0.data                0                       # Number of write requests responded to by this memory
system.physmem.num_writes::cpu1.dtb.walker            0                       # Number of write requests responded to by this memory
system.physmem.num_writes::cpu1.itb.walker            0                       # Number of write requests responded to by this memory
system.physmem.num_writes::cpu1.inst                0                       # Number of write requests responded to by this memory
system.physmem.num_writes::cpu1.data                0                       # Number of write requests responded to by this memory
system.physmem.num_writes::cpu2.dtb.walker            0                       # Number of write requests responded to by this memory
system.physmem.num_writes::cpu2.itb.walker            0                       # Number of write requests responded to by this memory
system.physmem.num_writes::cpu2.inst                0                       # Number of write requests responded to by this memory
system.physmem.num_writes::cpu2.data                0                       # Number of write requests responded to by this memory
system.physmem.num_writes::cpu3.dtb.walker            0                       # Number of write requests responded to by this memory
system.physmem.num_writes::cpu3.itb.walker            0                       # Number of write requests responded to by this memory
system.physmem.num_writes::cpu3.inst                0                       # Number of write requests responded to by this memory
system.physmem.num_writes::cpu3.data                0                       # Number of write requests responded to by this memory
system.physmem.num_writes::total                14227                       # Number of write requests responded to by this memory
system.physmem.bw_read::switch_cpus0.inst        36162                       # Total read bandwidth from this memory (bytes/s)
system.physmem.bw_read::switch_cpus0.data     37912738                       # Total read bandwidth from this memory (bytes/s)
system.physmem.bw_read::switch_cpus1.inst        54244                       # Total read bandwidth from this memory (bytes/s)
system.physmem.bw_read::switch_cpus1.data     44219473                       # Total read bandwidth from this memory (bytes/s)
system.physmem.bw_read::switch_cpus2.inst        61476                       # Total read bandwidth from this memory (bytes/s)
system.physmem.bw_read::switch_cpus2.data     14841079                       # Total read bandwidth from this memory (bytes/s)
system.physmem.bw_read::switch_cpus3.inst        47011                       # Total read bandwidth from this memory (bytes/s)
system.physmem.bw_read::switch_cpus3.data     24912328                       # Total read bandwidth from this memory (bytes/s)
system.physmem.bw_read::total               122084513                       # Total read bandwidth from this memory (bytes/s)
system.physmem.bw_inst_read::switch_cpus0.inst        36162                       # Instruction read bandwidth from this memory (bytes/s)
system.physmem.bw_inst_read::switch_cpus1.inst        54244                       # Instruction read bandwidth from this memory (bytes/s)
system.physmem.bw_inst_read::switch_cpus2.inst        61476                       # Instruction read bandwidth from this memory (bytes/s)
system.physmem.bw_inst_read::switch_cpus3.inst        47011                       # Instruction read bandwidth from this memory (bytes/s)
system.physmem.bw_inst_read::total             198894                       # Instruction read bandwidth from this memory (bytes/s)
system.physmem.bw_write::writebacks          51448352                       # Write bandwidth from this memory (bytes/s)
system.physmem.bw_write::total               51448352                       # Write bandwidth from this memory (bytes/s)
system.physmem.bw_total::writebacks          51448352                       # Total bandwidth to/from this memory (bytes/s)
system.physmem.bw_total::switch_cpus0.inst        36162                       # Total bandwidth to/from this memory (bytes/s)
system.physmem.bw_total::switch_cpus0.data     37912738                       # Total bandwidth to/from this memory (bytes/s)
system.physmem.bw_total::switch_cpus1.inst        54244                       # Total bandwidth to/from this memory (bytes/s)
system.physmem.bw_total::switch_cpus1.data     44219473                       # Total bandwidth to/from this memory (bytes/s)
system.physmem.bw_total::switch_cpus2.inst        61476                       # Total bandwidth to/from this memory (bytes/s)
system.physmem.bw_total::switch_cpus2.data     14841079                       # Total bandwidth to/from this memory (bytes/s)
system.physmem.bw_total::switch_cpus3.inst        47011                       # Total bandwidth to/from this memory (bytes/s)
system.physmem.bw_total::switch_cpus3.data     24912328                       # Total bandwidth to/from this memory (bytes/s)
system.physmem.bw_total::total              173532865                       # Total bandwidth to/from this memory (bytes/s)
system.switch_cpus0.dtb.inst_hits                   0                       # ITB inst hits
system.switch_cpus0.dtb.inst_misses                 0                       # ITB inst misses
system.switch_cpus0.dtb.read_hits                   0                       # DTB read hits
system.switch_cpus0.dtb.read_misses                 0                       # DTB read misses
system.switch_cpus0.dtb.write_hits                  0                       # DTB write hits
system.switch_cpus0.dtb.write_misses                0                       # DTB write misses
system.switch_cpus0.dtb.flush_tlb                   0                       # Number of times complete TLB was flushed
system.switch_cpus0.dtb.flush_tlb_mva               0                       # Number of times TLB was flushed by MVA
system.switch_cpus0.dtb.flush_tlb_mva_asid            0                       # Number of times TLB was flushed by MVA & ASID
system.switch_cpus0.dtb.flush_tlb_asid              0                       # Number of times TLB was flushed by ASID
system.switch_cpus0.dtb.flush_entries               0                       # Number of entries that have been flushed from TLB
system.switch_cpus0.dtb.align_faults                0                       # Number of TLB faults due to alignment restrictions
system.switch_cpus0.dtb.prefetch_faults             0                       # Number of TLB faults due to prefetch
system.switch_cpus0.dtb.domain_faults               0                       # Number of TLB faults due to domain restrictions
system.switch_cpus0.dtb.perms_faults                0                       # Number of TLB faults due to permissions restrictions
system.switch_cpus0.dtb.read_accesses               0                       # DTB read accesses
system.switch_cpus0.dtb.write_accesses              0                       # DTB write accesses
system.switch_cpus0.dtb.inst_accesses               0                       # ITB inst accesses
system.switch_cpus0.dtb.hits                        0                       # DTB hits
system.switch_cpus0.dtb.misses                      0                       # DTB misses
system.switch_cpus0.dtb.accesses                    0                       # DTB accesses
system.switch_cpus0.itb.inst_hits                   0                       # ITB inst hits
system.switch_cpus0.itb.inst_misses                 0                       # ITB inst misses
system.switch_cpus0.itb.read_hits                   0                       # DTB read hits
system.switch_cpus0.itb.read_misses                 0                       # DTB read misses
system.switch_cpus0.itb.write_hits                  0                       # DTB write hits
system.switch_cpus0.itb.write_misses                0                       # DTB write misses
system.switch_cpus0.itb.flush_tlb                   0                       # Number of times complete TLB was flushed
system.switch_cpus0.itb.flush_tlb_mva               0                       # Number of times TLB was flushed by MVA
system.switch_cpus0.itb.flush_tlb_mva_asid            0                       # Number of times TLB was flushed by MVA & ASID
system.switch_cpus0.itb.flush_tlb_asid              0                       # Number of times TLB was flushed by ASID
system.switch_cpus0.itb.flush_entries               0                       # Number of entries that have been flushed from TLB
system.switch_cpus0.itb.align_faults                0                       # Number of TLB faults due to alignment restrictions
system.switch_cpus0.itb.prefetch_faults             0                       # Number of TLB faults due to prefetch
system.switch_cpus0.itb.domain_faults               0                       # Number of TLB faults due to domain restrictions
system.switch_cpus0.itb.perms_faults                0                       # Number of TLB faults due to permissions restrictions
system.switch_cpus0.itb.read_accesses               0                       # DTB read accesses
system.switch_cpus0.itb.write_accesses              0                       # DTB write accesses
system.switch_cpus0.itb.inst_accesses               0                       # ITB inst accesses
system.switch_cpus0.itb.hits                        0                       # DTB hits
system.switch_cpus0.itb.misses                      0                       # DTB misses
system.switch_cpus0.itb.accesses                    0                       # DTB accesses
system.cpu0.workload.num_syscalls                   0                       # Number of system calls
system.switch_cpus0.numCycles                84882035                       # number of cpu cycles simulated
system.switch_cpus0.numWorkItemsStarted             0                       # number of work items this cpu started
system.switch_cpus0.numWorkItemsCompleted            0                       # number of work items this cpu completed
system.switch_cpus0.BPredUnit.lookups        30987038                       # Number of BP lookups
system.switch_cpus0.BPredUnit.condPredicted     25418907                       # Number of conditional branches predicted
system.switch_cpus0.BPredUnit.condIncorrect      2013137                       # Number of conditional branches incorrect
system.switch_cpus0.BPredUnit.BTBLookups     13089484                       # Number of BTB lookups
system.switch_cpus0.BPredUnit.BTBHits        12093590                       # Number of BTB hits
system.switch_cpus0.BPredUnit.BTBCorrect            0                       # Number of correct BTB predictions (this stat may not work properly.
system.switch_cpus0.BPredUnit.usedRAS         3162390                       # Number of times the RAS was used to get a target.
system.switch_cpus0.BPredUnit.RASInCorrect        87311                       # Number of incorrect RAS predictions.
system.switch_cpus0.fetch.icacheStallCycles     31997336                       # Number of cycles fetch is stalled on an Icache miss
system.switch_cpus0.fetch.Insts             170042321                       # Number of instructions fetch has processed
system.switch_cpus0.fetch.Branches           30987038                       # Number of branches that fetch encountered
system.switch_cpus0.fetch.predictedBranches     15255980                       # Number of branches that fetch has predicted taken
system.switch_cpus0.fetch.Cycles             36564542                       # Number of cycles fetch has run and was not squashing or blocked
system.switch_cpus0.fetch.SquashCycles       10791254                       # Number of cycles fetch has spent squashing
system.switch_cpus0.fetch.BlockedCycles       6493070                       # Number of cycles fetch has spent blocked
system.switch_cpus0.fetch.PendingTrapStallCycles            1                       # Number of stall cycles due to pending traps
system.switch_cpus0.fetch.CacheLines         15657432                       # Number of cache lines fetched
system.switch_cpus0.fetch.IcacheSquashes       808210                       # Number of outstanding Icache misses that were squashed
system.switch_cpus0.fetch.rateDist::samples     83800923                       # Number of instructions fetched each cycle (Total)
system.switch_cpus0.fetch.rateDist::mean     2.494363                       # Number of instructions fetched each cycle (Total)
system.switch_cpus0.fetch.rateDist::stdev     3.335060                       # Number of instructions fetched each cycle (Total)
system.switch_cpus0.fetch.rateDist::underflows            0      0.00%      0.00% # Number of instructions fetched each cycle (Total)
system.switch_cpus0.fetch.rateDist::0        47236381     56.37%     56.37% # Number of instructions fetched each cycle (Total)
system.switch_cpus0.fetch.rateDist::1         3645971      4.35%     60.72% # Number of instructions fetched each cycle (Total)
system.switch_cpus0.fetch.rateDist::2         3197267      3.82%     64.53% # Number of instructions fetched each cycle (Total)
system.switch_cpus0.fetch.rateDist::3         3436343      4.10%     68.63% # Number of instructions fetched each cycle (Total)
system.switch_cpus0.fetch.rateDist::4         3030362      3.62%     72.25% # Number of instructions fetched each cycle (Total)
system.switch_cpus0.fetch.rateDist::5         1576371      1.88%     74.13% # Number of instructions fetched each cycle (Total)
system.switch_cpus0.fetch.rateDist::6         1025120      1.22%     75.35% # Number of instructions fetched each cycle (Total)
system.switch_cpus0.fetch.rateDist::7         2698511      3.22%     78.57% # Number of instructions fetched each cycle (Total)
system.switch_cpus0.fetch.rateDist::8        17954597     21.43%    100.00% # Number of instructions fetched each cycle (Total)
system.switch_cpus0.fetch.rateDist::overflows            0      0.00%    100.00% # Number of instructions fetched each cycle (Total)
system.switch_cpus0.fetch.rateDist::min_value            0                       # Number of instructions fetched each cycle (Total)
system.switch_cpus0.fetch.rateDist::max_value            8                       # Number of instructions fetched each cycle (Total)
system.switch_cpus0.fetch.rateDist::total     83800923                       # Number of instructions fetched each cycle (Total)
system.switch_cpus0.fetch.branchRate         0.365060                       # Number of branch fetches per cycle
system.switch_cpus0.fetch.rate               2.003278                       # Number of inst fetches per cycle
system.switch_cpus0.decode.IdleCycles        33663191                       # Number of cycles decode is idle
system.switch_cpus0.decode.BlockedCycles      6073308                       # Number of cycles decode is blocked
system.switch_cpus0.decode.RunCycles         34779241                       # Number of cycles decode is running
system.switch_cpus0.decode.UnblockCycles       545650                       # Number of cycles decode is unblocking
system.switch_cpus0.decode.SquashCycles       8739524                       # Number of cycles decode is squashing
system.switch_cpus0.decode.BranchResolved      5075725                       # Number of times decode resolved a branch
system.switch_cpus0.decode.BranchMispred         6523                       # Number of times decode detected a branch misprediction
system.switch_cpus0.decode.DecodedInsts     201736456                       # Number of instructions handled by decode
system.switch_cpus0.decode.SquashedInsts        51057                       # Number of squashed instructions handled by decode
system.switch_cpus0.rename.SquashCycles       8739524                       # Number of cycles rename is squashing
system.switch_cpus0.rename.IdleCycles        35327242                       # Number of cycles rename is idle
system.switch_cpus0.rename.BlockCycles        2591555                       # Number of cycles rename is blocking
system.switch_cpus0.rename.serializeStallCycles       785602                       # count of cycles rename stalled for serializing inst
system.switch_cpus0.rename.RunCycles         33631495                       # Number of cycles rename is running
system.switch_cpus0.rename.UnblockCycles      2725497                       # Number of cycles rename is unblocking
system.switch_cpus0.rename.RenamedInsts     194919147                       # Number of instructions processed by rename
system.switch_cpus0.rename.ROBFullEvents        10778                       # Number of times rename has blocked due to ROB full
system.switch_cpus0.rename.IQFullEvents       1704733                       # Number of times rename has blocked due to IQ full
system.switch_cpus0.rename.LSQFullEvents       750110                       # Number of times rename has blocked due to LSQ full
system.switch_cpus0.rename.FullRegisterEvents           29                       # Number of times there has been no free registers
system.switch_cpus0.rename.RenamedOperands    270643384                       # Number of destination operands rename has renamed
system.switch_cpus0.rename.RenameLookups    908903519                       # Number of register rename lookups that rename has made
system.switch_cpus0.rename.int_rename_lookups    908903519                       # Number of integer rename lookups
system.switch_cpus0.rename.CommittedMaps    168259218                       # Number of HB maps that are committed
system.switch_cpus0.rename.UndoneMaps       102384120                       # Number of HB maps that are undone due to squashing
system.switch_cpus0.rename.serializingInsts        33863                       # count of serializing insts renamed
system.switch_cpus0.rename.tempSerializingInsts        17841                       # count of temporary serializing insts renamed
system.switch_cpus0.rename.skidInsts          7242028                       # count of insts added to the skid buffer
system.switch_cpus0.memDep0.insertedLoads     19251772                       # Number of loads inserted to the mem dependence unit.
system.switch_cpus0.memDep0.insertedStores     10025010                       # Number of stores inserted to the mem dependence unit.
system.switch_cpus0.memDep0.conflictingLoads       243271                       # Number of conflicting loads.
system.switch_cpus0.memDep0.conflictingStores      3154934                       # Number of conflicting stores.
system.switch_cpus0.iq.iqInstsAdded         183844995                       # Number of instructions added to the IQ (excludes non-spec)
system.switch_cpus0.iq.iqNonSpecInstsAdded        33846                       # Number of non-speculative instructions added to the IQ
system.switch_cpus0.iq.iqInstsIssued        147742194                       # Number of instructions issued
system.switch_cpus0.iq.iqSquashedInstsIssued       278916                       # Number of squashed instructions issued
system.switch_cpus0.iq.iqSquashedInstsExamined     60960512                       # Number of squashed instructions iterated over during squash; mainly for profiling
system.switch_cpus0.iq.iqSquashedOperandsExamined    186262537                       # Number of squashed operands that are examined and possibly removed from graph
system.switch_cpus0.iq.iqSquashedNonSpecRemoved         1802                       # Number of squashed non-spec instructions that were removed
system.switch_cpus0.iq.issued_per_cycle::samples     83800923                       # Number of insts issued each cycle
system.switch_cpus0.iq.issued_per_cycle::mean     1.763014                       # Number of insts issued each cycle
system.switch_cpus0.iq.issued_per_cycle::stdev     1.910313                       # Number of insts issued each cycle
system.switch_cpus0.iq.issued_per_cycle::underflows            0      0.00%      0.00% # Number of insts issued each cycle
system.switch_cpus0.iq.issued_per_cycle::0     29629344     35.36%     35.36% # Number of insts issued each cycle
system.switch_cpus0.iq.issued_per_cycle::1     17839234     21.29%     56.64% # Number of insts issued each cycle
system.switch_cpus0.iq.issued_per_cycle::2     11934849     14.24%     70.89% # Number of insts issued each cycle
system.switch_cpus0.iq.issued_per_cycle::3      7618317      9.09%     79.98% # Number of insts issued each cycle
system.switch_cpus0.iq.issued_per_cycle::4      7560942      9.02%     89.00% # Number of insts issued each cycle
system.switch_cpus0.iq.issued_per_cycle::5      4435564      5.29%     94.29% # Number of insts issued each cycle
system.switch_cpus0.iq.issued_per_cycle::6      3378569      4.03%     98.32% # Number of insts issued each cycle
system.switch_cpus0.iq.issued_per_cycle::7       747523      0.89%     99.22% # Number of insts issued each cycle
system.switch_cpus0.iq.issued_per_cycle::8       656581      0.78%    100.00% # Number of insts issued each cycle
system.switch_cpus0.iq.issued_per_cycle::overflows            0      0.00%    100.00% # Number of insts issued each cycle
system.switch_cpus0.iq.issued_per_cycle::min_value            0                       # Number of insts issued each cycle
system.switch_cpus0.iq.issued_per_cycle::max_value            8                       # Number of insts issued each cycle
system.switch_cpus0.iq.issued_per_cycle::total     83800923                       # Number of insts issued each cycle
system.switch_cpus0.iq.fu_full::No_OpClass            0      0.00%      0.00% # attempts to use FU when none available
system.switch_cpus0.iq.fu_full::IntAlu        1084292     70.07%     70.07% # attempts to use FU when none available
system.switch_cpus0.iq.fu_full::IntMult            41      0.00%     70.07% # attempts to use FU when none available
system.switch_cpus0.iq.fu_full::IntDiv              0      0.00%     70.07% # attempts to use FU when none available
system.switch_cpus0.iq.fu_full::FloatAdd            0      0.00%     70.07% # attempts to use FU when none available
system.switch_cpus0.iq.fu_full::FloatCmp            0      0.00%     70.07% # attempts to use FU when none available
system.switch_cpus0.iq.fu_full::FloatCvt            0      0.00%     70.07% # attempts to use FU when none available
system.switch_cpus0.iq.fu_full::FloatMult            0      0.00%     70.07% # attempts to use FU when none available
system.switch_cpus0.iq.fu_full::FloatDiv            0      0.00%     70.07% # attempts to use FU when none available
system.switch_cpus0.iq.fu_full::FloatSqrt            0      0.00%     70.07% # attempts to use FU when none available
system.switch_cpus0.iq.fu_full::SimdAdd             0      0.00%     70.07% # attempts to use FU when none available
system.switch_cpus0.iq.fu_full::SimdAddAcc            0      0.00%     70.07% # attempts to use FU when none available
system.switch_cpus0.iq.fu_full::SimdAlu             0      0.00%     70.07% # attempts to use FU when none available
system.switch_cpus0.iq.fu_full::SimdCmp             0      0.00%     70.07% # attempts to use FU when none available
system.switch_cpus0.iq.fu_full::SimdCvt             0      0.00%     70.07% # attempts to use FU when none available
system.switch_cpus0.iq.fu_full::SimdMisc            0      0.00%     70.07% # attempts to use FU when none available
system.switch_cpus0.iq.fu_full::SimdMult            0      0.00%     70.07% # attempts to use FU when none available
system.switch_cpus0.iq.fu_full::SimdMultAcc            0      0.00%     70.07% # attempts to use FU when none available
system.switch_cpus0.iq.fu_full::SimdShift            0      0.00%     70.07% # attempts to use FU when none available
system.switch_cpus0.iq.fu_full::SimdShiftAcc            0      0.00%     70.07% # attempts to use FU when none available
system.switch_cpus0.iq.fu_full::SimdSqrt            0      0.00%     70.07% # attempts to use FU when none available
system.switch_cpus0.iq.fu_full::SimdFloatAdd            0      0.00%     70.07% # attempts to use FU when none available
system.switch_cpus0.iq.fu_full::SimdFloatAlu            0      0.00%     70.07% # attempts to use FU when none available
system.switch_cpus0.iq.fu_full::SimdFloatCmp            0      0.00%     70.07% # attempts to use FU when none available
system.switch_cpus0.iq.fu_full::SimdFloatCvt            0      0.00%     70.07% # attempts to use FU when none available
system.switch_cpus0.iq.fu_full::SimdFloatDiv            0      0.00%     70.07% # attempts to use FU when none available
system.switch_cpus0.iq.fu_full::SimdFloatMisc            0      0.00%     70.07% # attempts to use FU when none available
system.switch_cpus0.iq.fu_full::SimdFloatMult            0      0.00%     70.07% # attempts to use FU when none available
system.switch_cpus0.iq.fu_full::SimdFloatMultAcc            0      0.00%     70.07% # attempts to use FU when none available
system.switch_cpus0.iq.fu_full::SimdFloatSqrt            0      0.00%     70.07% # attempts to use FU when none available
system.switch_cpus0.iq.fu_full::MemRead        203802     13.17%     83.24% # attempts to use FU when none available
system.switch_cpus0.iq.fu_full::MemWrite       259271     16.76%    100.00% # attempts to use FU when none available
system.switch_cpus0.iq.fu_full::IprAccess            0      0.00%    100.00% # attempts to use FU when none available
system.switch_cpus0.iq.fu_full::InstPrefetch            0      0.00%    100.00% # attempts to use FU when none available
system.switch_cpus0.iq.FU_type_0::No_OpClass            0      0.00%      0.00% # Type of FU issued
system.switch_cpus0.iq.FU_type_0::IntAlu    121544796     82.27%     82.27% # Type of FU issued
system.switch_cpus0.iq.FU_type_0::IntMult      2012862      1.36%     83.63% # Type of FU issued
system.switch_cpus0.iq.FU_type_0::IntDiv            0      0.00%     83.63% # Type of FU issued
system.switch_cpus0.iq.FU_type_0::FloatAdd            0      0.00%     83.63% # Type of FU issued
system.switch_cpus0.iq.FU_type_0::FloatCmp            0      0.00%     83.63% # Type of FU issued
system.switch_cpus0.iq.FU_type_0::FloatCvt            0      0.00%     83.63% # Type of FU issued
system.switch_cpus0.iq.FU_type_0::FloatMult            0      0.00%     83.63% # Type of FU issued
system.switch_cpus0.iq.FU_type_0::FloatDiv            0      0.00%     83.63% # Type of FU issued
system.switch_cpus0.iq.FU_type_0::FloatSqrt            0      0.00%     83.63% # Type of FU issued
system.switch_cpus0.iq.FU_type_0::SimdAdd            0      0.00%     83.63% # Type of FU issued
system.switch_cpus0.iq.FU_type_0::SimdAddAcc            0      0.00%     83.63% # Type of FU issued
system.switch_cpus0.iq.FU_type_0::SimdAlu            0      0.00%     83.63% # Type of FU issued
system.switch_cpus0.iq.FU_type_0::SimdCmp            0      0.00%     83.63% # Type of FU issued
system.switch_cpus0.iq.FU_type_0::SimdCvt            0      0.00%     83.63% # Type of FU issued
system.switch_cpus0.iq.FU_type_0::SimdMisc            0      0.00%     83.63% # Type of FU issued
system.switch_cpus0.iq.FU_type_0::SimdMult            0      0.00%     83.63% # Type of FU issued
system.switch_cpus0.iq.FU_type_0::SimdMultAcc            0      0.00%     83.63% # Type of FU issued
system.switch_cpus0.iq.FU_type_0::SimdShift            0      0.00%     83.63% # Type of FU issued
system.switch_cpus0.iq.FU_type_0::SimdShiftAcc            0      0.00%     83.63% # Type of FU issued
system.switch_cpus0.iq.FU_type_0::SimdSqrt            0      0.00%     83.63% # Type of FU issued
system.switch_cpus0.iq.FU_type_0::SimdFloatAdd            0      0.00%     83.63% # Type of FU issued
system.switch_cpus0.iq.FU_type_0::SimdFloatAlu            0      0.00%     83.63% # Type of FU issued
system.switch_cpus0.iq.FU_type_0::SimdFloatCmp            0      0.00%     83.63% # Type of FU issued
system.switch_cpus0.iq.FU_type_0::SimdFloatCvt            0      0.00%     83.63% # Type of FU issued
system.switch_cpus0.iq.FU_type_0::SimdFloatDiv            0      0.00%     83.63% # Type of FU issued
system.switch_cpus0.iq.FU_type_0::SimdFloatMisc        16022      0.01%     83.64% # Type of FU issued
system.switch_cpus0.iq.FU_type_0::SimdFloatMult            0      0.00%     83.64% # Type of FU issued
system.switch_cpus0.iq.FU_type_0::SimdFloatMultAcc            0      0.00%     83.64% # Type of FU issued
system.switch_cpus0.iq.FU_type_0::SimdFloatSqrt            0      0.00%     83.64% # Type of FU issued
system.switch_cpus0.iq.FU_type_0::MemRead     15728214     10.65%     94.29% # Type of FU issued
system.switch_cpus0.iq.FU_type_0::MemWrite      8440300      5.71%    100.00% # Type of FU issued
system.switch_cpus0.iq.FU_type_0::IprAccess            0      0.00%    100.00% # Type of FU issued
system.switch_cpus0.iq.FU_type_0::InstPrefetch            0      0.00%    100.00% # Type of FU issued
system.switch_cpus0.iq.FU_type_0::total     147742194                       # Type of FU issued
system.switch_cpus0.iq.rate                  1.740559                       # Inst issue rate
system.switch_cpus0.iq.fu_busy_cnt            1547406                       # FU busy when requested
system.switch_cpus0.iq.fu_busy_rate          0.010474                       # FU busy rate (busy events/executed inst)
system.switch_cpus0.iq.int_inst_queue_reads    381111629                       # Number of integer instruction queue reads
system.switch_cpus0.iq.int_inst_queue_writes    244840413                       # Number of integer instruction queue writes
system.switch_cpus0.iq.int_inst_queue_wakeup_accesses    143594461                       # Number of integer instruction queue wakeup accesses
system.switch_cpus0.iq.fp_inst_queue_reads            0                       # Number of floating instruction queue reads
system.switch_cpus0.iq.fp_inst_queue_writes            0                       # Number of floating instruction queue writes
system.switch_cpus0.iq.fp_inst_queue_wakeup_accesses            0                       # Number of floating instruction queue wakeup accesses
system.switch_cpus0.iq.int_alu_accesses     149289600                       # Number of integer alu accesses
system.switch_cpus0.iq.fp_alu_accesses              0                       # Number of floating point alu accesses
system.switch_cpus0.iew.lsq.thread0.forwLoads       262608                       # Number of loads that had data forwarded from stores
system.switch_cpus0.iew.lsq.thread0.invAddrLoads            0                       # Number of loads ignored due to an invalid address
system.switch_cpus0.iew.lsq.thread0.squashedLoads      7039643                       # Number of loads squashed
system.switch_cpus0.iew.lsq.thread0.ignoredResponses          538                       # Number of memory responses ignored because the instruction is squashed
system.switch_cpus0.iew.lsq.thread0.memOrderViolation         1084                       # Number of memory ordering violations
system.switch_cpus0.iew.lsq.thread0.squashedStores      2283337                       # Number of stores squashed
system.switch_cpus0.iew.lsq.thread0.invAddrSwpfs            0                       # Number of software prefetches ignored due to an invalid address
system.switch_cpus0.iew.lsq.thread0.blockedLoads            0                       # Number of blocked loads due to partial load-store forwarding
system.switch_cpus0.iew.lsq.thread0.rescheduledLoads          574                       # Number of loads that were rescheduled
system.switch_cpus0.iew.lsq.thread0.cacheBlocked            0                       # Number of times an access to memory failed due to the cache being blocked
system.switch_cpus0.iew.iewIdleCycles               0                       # Number of cycles IEW is idle
system.switch_cpus0.iew.iewSquashCycles       8739524                       # Number of cycles IEW is squashing
system.switch_cpus0.iew.iewBlockCycles        1853295                       # Number of cycles IEW is blocking
system.switch_cpus0.iew.iewUnblockCycles       164112                       # Number of cycles IEW is unblocking
system.switch_cpus0.iew.iewDispatchedInsts    183878841                       # Number of instructions dispatched to IQ
system.switch_cpus0.iew.iewDispSquashedInsts       312063                       # Number of squashed instructions skipped by dispatch
system.switch_cpus0.iew.iewDispLoadInsts     19251772                       # Number of dispatched load instructions
system.switch_cpus0.iew.iewDispStoreInsts     10025010                       # Number of dispatched store instructions
system.switch_cpus0.iew.iewDispNonSpecInsts        17824                       # Number of dispatched non-speculative instructions
system.switch_cpus0.iew.iewIQFullEvents        119624                       # Number of times the IQ has become full, causing a stall
system.switch_cpus0.iew.iewLSQFullEvents         8054                       # Number of times the LSQ has become full, causing a stall
system.switch_cpus0.iew.memOrderViolationEvents         1084                       # Number of memory order violations
system.switch_cpus0.iew.predictedTakenIncorrect      1228804                       # Number of branches that were predicted taken incorrectly
system.switch_cpus0.iew.predictedNotTakenIncorrect      1129682                       # Number of branches that were predicted not taken incorrectly
system.switch_cpus0.iew.branchMispredicts      2358486                       # Number of branch mispredicts detected at execute
system.switch_cpus0.iew.iewExecutedInsts    145160971                       # Number of executed instructions
system.switch_cpus0.iew.iewExecLoadInsts     14790518                       # Number of load instructions executed
system.switch_cpus0.iew.iewExecSquashedInsts      2581219                       # Number of squashed instructions skipped in execute
system.switch_cpus0.iew.exec_swp                    0                       # number of swp insts executed
system.switch_cpus0.iew.exec_nop                    0                       # number of nop insts executed
system.switch_cpus0.iew.exec_refs            22988275                       # number of memory reference insts executed
system.switch_cpus0.iew.exec_branches        20580323                       # Number of branches executed
system.switch_cpus0.iew.exec_stores           8197757                       # Number of stores executed
system.switch_cpus0.iew.exec_rate            1.710150                       # Inst execution rate
system.switch_cpus0.iew.wb_sent             143740846                       # cumulative count of insts sent to commit
system.switch_cpus0.iew.wb_count            143594461                       # cumulative count of insts written-back
system.switch_cpus0.iew.wb_producers         93686480                       # num instructions producing a value
system.switch_cpus0.iew.wb_consumers        261689641                       # num instructions consuming a value
system.switch_cpus0.iew.wb_penalized                0                       # number of instrctions required to write to 'other' IQ
system.switch_cpus0.iew.wb_rate              1.691694                       # insts written-back per cycle
system.switch_cpus0.iew.wb_fanout            0.358006                       # average fanout of values written-back
system.switch_cpus0.iew.wb_penalized_rate            0                       # fraction of instructions written-back that wrote to 'other' IQ
system.switch_cpus0.commit.commitCommittedInsts    100000000                       # The number of committed instructions
system.switch_cpus0.commit.commitCommittedOps    122421920                       # The number of committed instructions
system.switch_cpus0.commit.commitSquashedInsts     61460174                       # The number of squashed insts skipped by commit
system.switch_cpus0.commit.commitNonSpecStalls        32044                       # The number of times commit has been forced to stall to communicate backwards
system.switch_cpus0.commit.branchMispredicts      2038080                       # The number of times a branch was mispredicted
system.switch_cpus0.commit.committed_per_cycle::samples     75061399                       # Number of insts commited each cycle
system.switch_cpus0.commit.committed_per_cycle::mean     1.630957                       # Number of insts commited each cycle
system.switch_cpus0.commit.committed_per_cycle::stdev     2.173613                       # Number of insts commited each cycle
system.switch_cpus0.commit.committed_per_cycle::underflows            0      0.00%      0.00% # Number of insts commited each cycle
system.switch_cpus0.commit.committed_per_cycle::0     29761191     39.65%     39.65% # Number of insts commited each cycle
system.switch_cpus0.commit.committed_per_cycle::1     20445416     27.24%     66.89% # Number of insts commited each cycle
system.switch_cpus0.commit.committed_per_cycle::2      8370092     11.15%     78.04% # Number of insts commited each cycle
system.switch_cpus0.commit.committed_per_cycle::3      4295382      5.72%     83.76% # Number of insts commited each cycle
system.switch_cpus0.commit.committed_per_cycle::4      3684982      4.91%     88.67% # Number of insts commited each cycle
system.switch_cpus0.commit.committed_per_cycle::5      1809482      2.41%     91.08% # Number of insts commited each cycle
system.switch_cpus0.commit.committed_per_cycle::6      1993836      2.66%     93.74% # Number of insts commited each cycle
system.switch_cpus0.commit.committed_per_cycle::7      1008324      1.34%     95.08% # Number of insts commited each cycle
system.switch_cpus0.commit.committed_per_cycle::8      3692694      4.92%    100.00% # Number of insts commited each cycle
system.switch_cpus0.commit.committed_per_cycle::overflows            0      0.00%    100.00% # Number of insts commited each cycle
system.switch_cpus0.commit.committed_per_cycle::min_value            0                       # Number of insts commited each cycle
system.switch_cpus0.commit.committed_per_cycle::max_value            8                       # Number of insts commited each cycle
system.switch_cpus0.commit.committed_per_cycle::total     75061399                       # Number of insts commited each cycle
system.switch_cpus0.commit.committedInsts    100000000                       # Number of instructions committed
system.switch_cpus0.commit.committedOps     122421920                       # Number of ops (including micro ops) committed
system.switch_cpus0.commit.swp_count                0                       # Number of s/w prefetches committed
system.switch_cpus0.commit.refs              19953799                       # Number of memory references committed
system.switch_cpus0.commit.loads             12212129                       # Number of loads committed
system.switch_cpus0.commit.membars              16022                       # Number of memory barriers committed
system.switch_cpus0.commit.branches          17573934                       # Number of branches committed
system.switch_cpus0.commit.fp_insts                 0                       # Number of committed floating point instructions.
system.switch_cpus0.commit.int_insts        110146126                       # Number of committed integer instructions.
system.switch_cpus0.commit.function_calls      2413416                       # Number of function calls committed.
system.switch_cpus0.commit.bw_lim_events      3692694                       # number cycles where commit BW limit reached
system.switch_cpus0.commit.bw_limited               0                       # number of insts not committed due to BW limits
system.switch_cpus0.rob.rob_reads           255250799                       # The number of ROB reads
system.switch_cpus0.rob.rob_writes          376511921                       # The number of ROB writes
system.switch_cpus0.timesIdled                  40626                       # Number of times that the entire CPU went into an idle state and unscheduled itself
system.switch_cpus0.idleCycles                1081112                       # Total number of cycles that the CPU has spent unscheduled due to idling
system.switch_cpus0.committedInsts          100000000                       # Number of Instructions Simulated
system.switch_cpus0.committedOps            122421920                       # Number of Ops (including micro ops) Simulated
system.switch_cpus0.committedInsts_total    100000000                       # Number of Instructions Simulated
system.switch_cpus0.cpi                      0.848820                       # CPI: Cycles Per Instruction
system.switch_cpus0.cpi_total                0.848820                       # CPI: Total CPI of All Threads
system.switch_cpus0.ipc                      1.178106                       # IPC: Instructions Per Cycle
system.switch_cpus0.ipc_total                1.178106                       # IPC: Total IPC of All Threads
system.switch_cpus0.int_regfile_reads       655395773                       # number of integer regfile reads
system.switch_cpus0.int_regfile_writes      196942522                       # number of integer regfile writes
system.switch_cpus0.misc_regfile_reads      189163388                       # number of misc regfile reads
system.switch_cpus0.misc_regfile_writes         32044                       # number of misc regfile writes
system.switch_cpus1.dtb.inst_hits                   0                       # ITB inst hits
system.switch_cpus1.dtb.inst_misses                 0                       # ITB inst misses
system.switch_cpus1.dtb.read_hits                   0                       # DTB read hits
system.switch_cpus1.dtb.read_misses                 0                       # DTB read misses
system.switch_cpus1.dtb.write_hits                  0                       # DTB write hits
system.switch_cpus1.dtb.write_misses                0                       # DTB write misses
system.switch_cpus1.dtb.flush_tlb                   0                       # Number of times complete TLB was flushed
system.switch_cpus1.dtb.flush_tlb_mva               0                       # Number of times TLB was flushed by MVA
system.switch_cpus1.dtb.flush_tlb_mva_asid            0                       # Number of times TLB was flushed by MVA & ASID
system.switch_cpus1.dtb.flush_tlb_asid              0                       # Number of times TLB was flushed by ASID
system.switch_cpus1.dtb.flush_entries               0                       # Number of entries that have been flushed from TLB
system.switch_cpus1.dtb.align_faults                0                       # Number of TLB faults due to alignment restrictions
system.switch_cpus1.dtb.prefetch_faults             0                       # Number of TLB faults due to prefetch
system.switch_cpus1.dtb.domain_faults               0                       # Number of TLB faults due to domain restrictions
system.switch_cpus1.dtb.perms_faults                0                       # Number of TLB faults due to permissions restrictions
system.switch_cpus1.dtb.read_accesses               0                       # DTB read accesses
system.switch_cpus1.dtb.write_accesses              0                       # DTB write accesses
system.switch_cpus1.dtb.inst_accesses               0                       # ITB inst accesses
system.switch_cpus1.dtb.hits                        0                       # DTB hits
system.switch_cpus1.dtb.misses                      0                       # DTB misses
system.switch_cpus1.dtb.accesses                    0                       # DTB accesses
system.switch_cpus1.itb.inst_hits                   0                       # ITB inst hits
system.switch_cpus1.itb.inst_misses                 0                       # ITB inst misses
system.switch_cpus1.itb.read_hits                   0                       # DTB read hits
system.switch_cpus1.itb.read_misses                 0                       # DTB read misses
system.switch_cpus1.itb.write_hits                  0                       # DTB write hits
system.switch_cpus1.itb.write_misses                0                       # DTB write misses
system.switch_cpus1.itb.flush_tlb                   0                       # Number of times complete TLB was flushed
system.switch_cpus1.itb.flush_tlb_mva               0                       # Number of times TLB was flushed by MVA
system.switch_cpus1.itb.flush_tlb_mva_asid            0                       # Number of times TLB was flushed by MVA & ASID
system.switch_cpus1.itb.flush_tlb_asid              0                       # Number of times TLB was flushed by ASID
system.switch_cpus1.itb.flush_entries               0                       # Number of entries that have been flushed from TLB
system.switch_cpus1.itb.align_faults                0                       # Number of TLB faults due to alignment restrictions
system.switch_cpus1.itb.prefetch_faults             0                       # Number of TLB faults due to prefetch
system.switch_cpus1.itb.domain_faults               0                       # Number of TLB faults due to domain restrictions
system.switch_cpus1.itb.perms_faults                0                       # Number of TLB faults due to permissions restrictions
system.switch_cpus1.itb.read_accesses               0                       # DTB read accesses
system.switch_cpus1.itb.write_accesses              0                       # DTB write accesses
system.switch_cpus1.itb.inst_accesses               0                       # ITB inst accesses
system.switch_cpus1.itb.hits                        0                       # DTB hits
system.switch_cpus1.itb.misses                      0                       # DTB misses
system.switch_cpus1.itb.accesses                    0                       # DTB accesses
system.cpu1.workload.num_syscalls                   0                       # Number of system calls
system.switch_cpus1.numCycles                84882035                       # number of cpu cycles simulated
system.switch_cpus1.numWorkItemsStarted             0                       # number of work items this cpu started
system.switch_cpus1.numWorkItemsCompleted            0                       # number of work items this cpu completed
system.switch_cpus1.BPredUnit.lookups        31033404                       # Number of BP lookups
system.switch_cpus1.BPredUnit.condPredicted     27136418                       # Number of conditional branches predicted
system.switch_cpus1.BPredUnit.condIncorrect      1962108                       # Number of conditional branches incorrect
system.switch_cpus1.BPredUnit.BTBLookups     15592876                       # Number of BTB lookups
system.switch_cpus1.BPredUnit.BTBHits        14935779                       # Number of BTB hits
system.switch_cpus1.BPredUnit.BTBCorrect            0                       # Number of correct BTB predictions (this stat may not work properly.
system.switch_cpus1.BPredUnit.usedRAS         2231413                       # Number of times the RAS was used to get a target.
system.switch_cpus1.BPredUnit.RASInCorrect        62126                       # Number of incorrect RAS predictions.
system.switch_cpus1.fetch.icacheStallCycles     36596509                       # Number of cycles fetch is stalled on an Icache miss
system.switch_cpus1.fetch.Insts             172684037                       # Number of instructions fetch has processed
system.switch_cpus1.fetch.Branches           31033404                       # Number of branches that fetch encountered
system.switch_cpus1.fetch.predictedBranches     17167192                       # Number of branches that fetch has predicted taken
system.switch_cpus1.fetch.Cycles             35559188                       # Number of cycles fetch has run and was not squashing or blocked
system.switch_cpus1.fetch.SquashCycles        9632820                       # Number of cycles fetch has spent squashing
system.switch_cpus1.fetch.BlockedCycles       4033588                       # Number of cycles fetch has spent blocked
system.switch_cpus1.fetch.PendingTrapStallCycles           30                       # Number of stall cycles due to pending traps
system.switch_cpus1.fetch.CacheLines         18041243                       # Number of cache lines fetched
system.switch_cpus1.fetch.IcacheSquashes       778820                       # Number of outstanding Icache misses that were squashed
system.switch_cpus1.fetch.rateDist::samples     83848832                       # Number of instructions fetched each cycle (Total)
system.switch_cpus1.fetch.rateDist::mean     2.370650                       # Number of instructions fetched each cycle (Total)
system.switch_cpus1.fetch.rateDist::stdev     3.172479                       # Number of instructions fetched each cycle (Total)
system.switch_cpus1.fetch.rateDist::underflows            0      0.00%      0.00% # Number of instructions fetched each cycle (Total)
system.switch_cpus1.fetch.rateDist::0        48289644     57.59%     57.59% # Number of instructions fetched each cycle (Total)
system.switch_cpus1.fetch.rateDist::1         1763153      2.10%     59.69% # Number of instructions fetched each cycle (Total)
system.switch_cpus1.fetch.rateDist::2         3233963      3.86%     63.55% # Number of instructions fetched each cycle (Total)
system.switch_cpus1.fetch.rateDist::3         3021117      3.60%     67.15% # Number of instructions fetched each cycle (Total)
system.switch_cpus1.fetch.rateDist::4         4981689      5.94%     73.10% # Number of instructions fetched each cycle (Total)
system.switch_cpus1.fetch.rateDist::5         5179439      6.18%     79.27% # Number of instructions fetched each cycle (Total)
system.switch_cpus1.fetch.rateDist::6         1228265      1.46%     80.74% # Number of instructions fetched each cycle (Total)
system.switch_cpus1.fetch.rateDist::7          924246      1.10%     81.84% # Number of instructions fetched each cycle (Total)
system.switch_cpus1.fetch.rateDist::8        15227316     18.16%    100.00% # Number of instructions fetched each cycle (Total)
system.switch_cpus1.fetch.rateDist::overflows            0      0.00%    100.00% # Number of instructions fetched each cycle (Total)
system.switch_cpus1.fetch.rateDist::min_value            0                       # Number of instructions fetched each cycle (Total)
system.switch_cpus1.fetch.rateDist::max_value            8                       # Number of instructions fetched each cycle (Total)
system.switch_cpus1.fetch.rateDist::total     83848832                       # Number of instructions fetched each cycle (Total)
system.switch_cpus1.fetch.branchRate         0.365606                       # Number of branch fetches per cycle
system.switch_cpus1.fetch.rate               2.034400                       # Number of inst fetches per cycle
system.switch_cpus1.decode.IdleCycles        37744459                       # Number of cycles decode is idle
system.switch_cpus1.decode.BlockedCycles      3898405                       # Number of cycles decode is blocked
system.switch_cpus1.decode.RunCycles         34414885                       # Number of cycles decode is running
system.switch_cpus1.decode.UnblockCycles       137206                       # Number of cycles decode is unblocking
system.switch_cpus1.decode.SquashCycles       7653876                       # Number of cycles decode is squashing
system.switch_cpus1.decode.BranchResolved      3371454                       # Number of times decode resolved a branch
system.switch_cpus1.decode.BranchMispred         5656                       # Number of times decode detected a branch misprediction
system.switch_cpus1.decode.DecodedInsts     193201938                       # Number of instructions handled by decode
system.switch_cpus1.decode.SquashedInsts         1389                       # Number of squashed instructions handled by decode
system.switch_cpus1.rename.SquashCycles       7653876                       # Number of cycles rename is squashing
system.switch_cpus1.rename.IdleCycles        39323777                       # Number of cycles rename is idle
system.switch_cpus1.rename.BlockCycles        1284505                       # Number of cycles rename is blocking
system.switch_cpus1.rename.serializeStallCycles       452080                       # count of cycles rename stalled for serializing inst
system.switch_cpus1.rename.RunCycles         32956589                       # Number of cycles rename is running
system.switch_cpus1.rename.UnblockCycles      2178004                       # Number of cycles rename is unblocking
system.switch_cpus1.rename.RenamedInsts     188133706                       # Number of instructions processed by rename
system.switch_cpus1.rename.ROBFullEvents           24                       # Number of times rename has blocked due to ROB full
system.switch_cpus1.rename.IQFullEvents        749120                       # Number of times rename has blocked due to IQ full
system.switch_cpus1.rename.LSQFullEvents       871485                       # Number of times rename has blocked due to LSQ full
system.switch_cpus1.rename.RenamedOperands    249716660                       # Number of destination operands rename has renamed
system.switch_cpus1.rename.RenameLookups    856343098                       # Number of register rename lookups that rename has made
system.switch_cpus1.rename.int_rename_lookups    856343098                       # Number of integer rename lookups
system.switch_cpus1.rename.CommittedMaps    162753323                       # Number of HB maps that are committed
system.switch_cpus1.rename.UndoneMaps        86963309                       # Number of HB maps that are undone due to squashing
system.switch_cpus1.rename.serializingInsts        22177                       # count of serializing insts renamed
system.switch_cpus1.rename.tempSerializingInsts        10835                       # count of temporary serializing insts renamed
system.switch_cpus1.rename.skidInsts          5849284                       # count of insts added to the skid buffer
system.switch_cpus1.memDep0.insertedLoads     28980615                       # Number of loads inserted to the mem dependence unit.
system.switch_cpus1.memDep0.insertedStores      6294246                       # Number of stores inserted to the mem dependence unit.
system.switch_cpus1.memDep0.conflictingLoads       103693                       # Number of conflicting loads.
system.switch_cpus1.memDep0.conflictingStores      2088908                       # Number of conflicting stores.
system.switch_cpus1.iq.iqInstsAdded         178087698                       # Number of instructions added to the IQ (excludes non-spec)
system.switch_cpus1.iq.iqNonSpecInstsAdded        21656                       # Number of non-speculative instructions added to the IQ
system.switch_cpus1.iq.iqInstsIssued        150384794                       # Number of instructions issued
system.switch_cpus1.iq.iqSquashedInstsIssued       199093                       # Number of squashed instructions issued
system.switch_cpus1.iq.iqSquashedInstsExamined     53272420                       # Number of squashed instructions iterated over during squash; mainly for profiling
system.switch_cpus1.iq.iqSquashedOperandsExamined    146358843                       # Number of squashed operands that are examined and possibly removed from graph
system.switch_cpus1.iq.iqSquashedNonSpecRemoved           12                       # Number of squashed non-spec instructions that were removed
system.switch_cpus1.iq.issued_per_cycle::samples     83848832                       # Number of insts issued each cycle
system.switch_cpus1.iq.issued_per_cycle::mean     1.793523                       # Number of insts issued each cycle
system.switch_cpus1.iq.issued_per_cycle::stdev     1.840862                       # Number of insts issued each cycle
system.switch_cpus1.iq.issued_per_cycle::underflows            0      0.00%      0.00% # Number of insts issued each cycle
system.switch_cpus1.iq.issued_per_cycle::0     28862785     34.42%     34.42% # Number of insts issued each cycle
system.switch_cpus1.iq.issued_per_cycle::1     15673790     18.69%     53.12% # Number of insts issued each cycle
system.switch_cpus1.iq.issued_per_cycle::2     13681362     16.32%     69.43% # Number of insts issued each cycle
system.switch_cpus1.iq.issued_per_cycle::3      8382394     10.00%     79.43% # Number of insts issued each cycle
system.switch_cpus1.iq.issued_per_cycle::4      8775585     10.47%     89.90% # Number of insts issued each cycle
system.switch_cpus1.iq.issued_per_cycle::5      5178703      6.18%     96.07% # Number of insts issued each cycle
system.switch_cpus1.iq.issued_per_cycle::6      2271377      2.71%     98.78% # Number of insts issued each cycle
system.switch_cpus1.iq.issued_per_cycle::7       605707      0.72%     99.50% # Number of insts issued each cycle
system.switch_cpus1.iq.issued_per_cycle::8       417129      0.50%    100.00% # Number of insts issued each cycle
system.switch_cpus1.iq.issued_per_cycle::overflows            0      0.00%    100.00% # Number of insts issued each cycle
system.switch_cpus1.iq.issued_per_cycle::min_value            0                       # Number of insts issued each cycle
system.switch_cpus1.iq.issued_per_cycle::max_value            8                       # Number of insts issued each cycle
system.switch_cpus1.iq.issued_per_cycle::total     83848832                       # Number of insts issued each cycle
system.switch_cpus1.iq.fu_full::No_OpClass            0      0.00%      0.00% # attempts to use FU when none available
system.switch_cpus1.iq.fu_full::IntAlu         590716     66.32%     66.32% # attempts to use FU when none available
system.switch_cpus1.iq.fu_full::IntMult             0      0.00%     66.32% # attempts to use FU when none available
system.switch_cpus1.iq.fu_full::IntDiv              0      0.00%     66.32% # attempts to use FU when none available
system.switch_cpus1.iq.fu_full::FloatAdd            0      0.00%     66.32% # attempts to use FU when none available
system.switch_cpus1.iq.fu_full::FloatCmp            0      0.00%     66.32% # attempts to use FU when none available
system.switch_cpus1.iq.fu_full::FloatCvt            0      0.00%     66.32% # attempts to use FU when none available
system.switch_cpus1.iq.fu_full::FloatMult            0      0.00%     66.32% # attempts to use FU when none available
system.switch_cpus1.iq.fu_full::FloatDiv            0      0.00%     66.32% # attempts to use FU when none available
system.switch_cpus1.iq.fu_full::FloatSqrt            0      0.00%     66.32% # attempts to use FU when none available
system.switch_cpus1.iq.fu_full::SimdAdd             0      0.00%     66.32% # attempts to use FU when none available
system.switch_cpus1.iq.fu_full::SimdAddAcc            0      0.00%     66.32% # attempts to use FU when none available
system.switch_cpus1.iq.fu_full::SimdAlu             0      0.00%     66.32% # attempts to use FU when none available
system.switch_cpus1.iq.fu_full::SimdCmp             0      0.00%     66.32% # attempts to use FU when none available
system.switch_cpus1.iq.fu_full::SimdCvt             0      0.00%     66.32% # attempts to use FU when none available
system.switch_cpus1.iq.fu_full::SimdMisc            0      0.00%     66.32% # attempts to use FU when none available
system.switch_cpus1.iq.fu_full::SimdMult            0      0.00%     66.32% # attempts to use FU when none available
system.switch_cpus1.iq.fu_full::SimdMultAcc            0      0.00%     66.32% # attempts to use FU when none available
system.switch_cpus1.iq.fu_full::SimdShift            0      0.00%     66.32% # attempts to use FU when none available
system.switch_cpus1.iq.fu_full::SimdShiftAcc            0      0.00%     66.32% # attempts to use FU when none available
system.switch_cpus1.iq.fu_full::SimdSqrt            0      0.00%     66.32% # attempts to use FU when none available
system.switch_cpus1.iq.fu_full::SimdFloatAdd            0      0.00%     66.32% # attempts to use FU when none available
system.switch_cpus1.iq.fu_full::SimdFloatAlu            0      0.00%     66.32% # attempts to use FU when none available
system.switch_cpus1.iq.fu_full::SimdFloatCmp            0      0.00%     66.32% # attempts to use FU when none available
system.switch_cpus1.iq.fu_full::SimdFloatCvt            0      0.00%     66.32% # attempts to use FU when none available
system.switch_cpus1.iq.fu_full::SimdFloatDiv            0      0.00%     66.32% # attempts to use FU when none available
system.switch_cpus1.iq.fu_full::SimdFloatMisc            0      0.00%     66.32% # attempts to use FU when none available
system.switch_cpus1.iq.fu_full::SimdFloatMult            0      0.00%     66.32% # attempts to use FU when none available
system.switch_cpus1.iq.fu_full::SimdFloatMultAcc            0      0.00%     66.32% # attempts to use FU when none available
system.switch_cpus1.iq.fu_full::SimdFloatSqrt            0      0.00%     66.32% # attempts to use FU when none available
system.switch_cpus1.iq.fu_full::MemRead        189727     21.30%     87.63% # attempts to use FU when none available
system.switch_cpus1.iq.fu_full::MemWrite       110214     12.37%    100.00% # attempts to use FU when none available
system.switch_cpus1.iq.fu_full::IprAccess            0      0.00%    100.00% # attempts to use FU when none available
system.switch_cpus1.iq.fu_full::InstPrefetch            0      0.00%    100.00% # attempts to use FU when none available
system.switch_cpus1.iq.FU_type_0::No_OpClass            0      0.00%      0.00% # Type of FU issued
system.switch_cpus1.iq.FU_type_0::IntAlu    117929285     78.42%     78.42% # Type of FU issued
system.switch_cpus1.iq.FU_type_0::IntMult      1184253      0.79%     79.21% # Type of FU issued
system.switch_cpus1.iq.FU_type_0::IntDiv            0      0.00%     79.21% # Type of FU issued
system.switch_cpus1.iq.FU_type_0::FloatAdd            0      0.00%     79.21% # Type of FU issued
system.switch_cpus1.iq.FU_type_0::FloatCmp            0      0.00%     79.21% # Type of FU issued
system.switch_cpus1.iq.FU_type_0::FloatCvt            0      0.00%     79.21% # Type of FU issued
system.switch_cpus1.iq.FU_type_0::FloatMult            0      0.00%     79.21% # Type of FU issued
system.switch_cpus1.iq.FU_type_0::FloatDiv            0      0.00%     79.21% # Type of FU issued
system.switch_cpus1.iq.FU_type_0::FloatSqrt            0      0.00%     79.21% # Type of FU issued
system.switch_cpus1.iq.FU_type_0::SimdAdd            0      0.00%     79.21% # Type of FU issued
system.switch_cpus1.iq.FU_type_0::SimdAddAcc            0      0.00%     79.21% # Type of FU issued
system.switch_cpus1.iq.FU_type_0::SimdAlu            0      0.00%     79.21% # Type of FU issued
system.switch_cpus1.iq.FU_type_0::SimdCmp            0      0.00%     79.21% # Type of FU issued
system.switch_cpus1.iq.FU_type_0::SimdCvt            0      0.00%     79.21% # Type of FU issued
system.switch_cpus1.iq.FU_type_0::SimdMisc            0      0.00%     79.21% # Type of FU issued
system.switch_cpus1.iq.FU_type_0::SimdMult            0      0.00%     79.21% # Type of FU issued
system.switch_cpus1.iq.FU_type_0::SimdMultAcc            0      0.00%     79.21% # Type of FU issued
system.switch_cpus1.iq.FU_type_0::SimdShift            0      0.00%     79.21% # Type of FU issued
system.switch_cpus1.iq.FU_type_0::SimdShiftAcc            0      0.00%     79.21% # Type of FU issued
system.switch_cpus1.iq.FU_type_0::SimdSqrt            0      0.00%     79.21% # Type of FU issued
system.switch_cpus1.iq.FU_type_0::SimdFloatAdd            0      0.00%     79.21% # Type of FU issued
system.switch_cpus1.iq.FU_type_0::SimdFloatAlu            0      0.00%     79.21% # Type of FU issued
system.switch_cpus1.iq.FU_type_0::SimdFloatCmp            0      0.00%     79.21% # Type of FU issued
system.switch_cpus1.iq.FU_type_0::SimdFloatCvt            0      0.00%     79.21% # Type of FU issued
system.switch_cpus1.iq.FU_type_0::SimdFloatDiv            0      0.00%     79.21% # Type of FU issued
system.switch_cpus1.iq.FU_type_0::SimdFloatMisc        10824      0.01%     79.21% # Type of FU issued
system.switch_cpus1.iq.FU_type_0::SimdFloatMult            0      0.00%     79.21% # Type of FU issued
system.switch_cpus1.iq.FU_type_0::SimdFloatMultAcc            0      0.00%     79.21% # Type of FU issued
system.switch_cpus1.iq.FU_type_0::SimdFloatSqrt            0      0.00%     79.21% # Type of FU issued
system.switch_cpus1.iq.FU_type_0::MemRead     25913485     17.23%     96.44% # Type of FU issued
system.switch_cpus1.iq.FU_type_0::MemWrite      5346947      3.56%    100.00% # Type of FU issued
system.switch_cpus1.iq.FU_type_0::IprAccess            0      0.00%    100.00% # Type of FU issued
system.switch_cpus1.iq.FU_type_0::InstPrefetch            0      0.00%    100.00% # Type of FU issued
system.switch_cpus1.iq.FU_type_0::total     150384794                       # Type of FU issued
system.switch_cpus1.iq.rate                  1.771692                       # Inst issue rate
system.switch_cpus1.iq.fu_busy_cnt             890657                       # FU busy when requested
system.switch_cpus1.iq.fu_busy_rate          0.005923                       # FU busy rate (busy events/executed inst)
system.switch_cpus1.iq.int_inst_queue_reads    385708169                       # Number of integer instruction queue reads
system.switch_cpus1.iq.int_inst_queue_writes    231382249                       # Number of integer instruction queue writes
system.switch_cpus1.iq.int_inst_queue_wakeup_accesses    145501307                       # Number of integer instruction queue wakeup accesses
system.switch_cpus1.iq.fp_inst_queue_reads            0                       # Number of floating instruction queue reads
system.switch_cpus1.iq.fp_inst_queue_writes            0                       # Number of floating instruction queue writes
system.switch_cpus1.iq.fp_inst_queue_wakeup_accesses            0                       # Number of floating instruction queue wakeup accesses
system.switch_cpus1.iq.int_alu_accesses     151275451                       # Number of integer alu accesses
system.switch_cpus1.iq.fp_alu_accesses              0                       # Number of floating point alu accesses
system.switch_cpus1.iew.lsq.thread0.forwLoads       367585                       # Number of loads that had data forwarded from stores
system.switch_cpus1.iew.lsq.thread0.invAddrLoads            0                       # Number of loads ignored due to an invalid address
system.switch_cpus1.iew.lsq.thread0.squashedLoads      8243528                       # Number of loads squashed
system.switch_cpus1.iew.lsq.thread0.ignoredResponses          942                       # Number of memory responses ignored because the instruction is squashed
system.switch_cpus1.iew.lsq.thread0.memOrderViolation          476                       # Number of memory ordering violations
system.switch_cpus1.iew.lsq.thread0.squashedStores      1540684                       # Number of stores squashed
system.switch_cpus1.iew.lsq.thread0.invAddrSwpfs            0                       # Number of software prefetches ignored due to an invalid address
system.switch_cpus1.iew.lsq.thread0.blockedLoads            0                       # Number of blocked loads due to partial load-store forwarding
system.switch_cpus1.iew.lsq.thread0.rescheduledLoads            0                       # Number of loads that were rescheduled
system.switch_cpus1.iew.lsq.thread0.cacheBlocked            0                       # Number of times an access to memory failed due to the cache being blocked
system.switch_cpus1.iew.iewIdleCycles               0                       # Number of cycles IEW is idle
system.switch_cpus1.iew.iewSquashCycles       7653876                       # Number of cycles IEW is squashing
system.switch_cpus1.iew.iewBlockCycles         669576                       # Number of cycles IEW is blocking
system.switch_cpus1.iew.iewUnblockCycles        61201                       # Number of cycles IEW is unblocking
system.switch_cpus1.iew.iewDispatchedInsts    178109358                       # Number of instructions dispatched to IQ
system.switch_cpus1.iew.iewDispSquashedInsts       208568                       # Number of squashed instructions skipped by dispatch
system.switch_cpus1.iew.iewDispLoadInsts     28980615                       # Number of dispatched load instructions
system.switch_cpus1.iew.iewDispStoreInsts      6294246                       # Number of dispatched store instructions
system.switch_cpus1.iew.iewDispNonSpecInsts        10834                       # Number of dispatched non-speculative instructions
system.switch_cpus1.iew.iewIQFullEvents         33530                       # Number of times the IQ has become full, causing a stall
system.switch_cpus1.iew.iewLSQFullEvents          221                       # Number of times the LSQ has become full, causing a stall
system.switch_cpus1.iew.memOrderViolationEvents          476                       # Number of memory order violations
system.switch_cpus1.iew.predictedTakenIncorrect      1047791                       # Number of branches that were predicted taken incorrectly
system.switch_cpus1.iew.predictedNotTakenIncorrect      1153017                       # Number of branches that were predicted not taken incorrectly
system.switch_cpus1.iew.branchMispredicts      2200808                       # Number of branch mispredicts detected at execute
system.switch_cpus1.iew.iewExecutedInsts    147589453                       # Number of executed instructions
system.switch_cpus1.iew.iewExecLoadInsts     24912263                       # Number of load instructions executed
system.switch_cpus1.iew.iewExecSquashedInsts      2795340                       # Number of squashed instructions skipped in execute
system.switch_cpus1.iew.exec_swp                    0                       # number of swp insts executed
system.switch_cpus1.iew.exec_nop                    4                       # number of nop insts executed
system.switch_cpus1.iew.exec_refs            30128643                       # number of memory reference insts executed
system.switch_cpus1.iew.exec_branches        22314258                       # Number of branches executed
system.switch_cpus1.iew.exec_stores           5216380                       # Number of stores executed
system.switch_cpus1.iew.exec_rate            1.738760                       # Inst execution rate
system.switch_cpus1.iew.wb_sent             145663942                       # cumulative count of insts sent to commit
system.switch_cpus1.iew.wb_count            145501307                       # cumulative count of insts written-back
system.switch_cpus1.iew.wb_producers         89407875                       # num instructions producing a value
system.switch_cpus1.iew.wb_consumers        218090789                       # num instructions consuming a value
system.switch_cpus1.iew.wb_penalized                0                       # number of instrctions required to write to 'other' IQ
system.switch_cpus1.iew.wb_rate              1.714159                       # insts written-back per cycle
system.switch_cpus1.iew.wb_fanout            0.409957                       # average fanout of values written-back
system.switch_cpus1.iew.wb_penalized_rate            0                       # fraction of instructions written-back that wrote to 'other' IQ
system.switch_cpus1.commit.commitCommittedInsts    109370988                       # The number of committed instructions
system.switch_cpus1.commit.commitCommittedOps    124220832                       # The number of committed instructions
system.switch_cpus1.commit.commitSquashedInsts     53889238                       # The number of squashed insts skipped by commit
system.switch_cpus1.commit.commitNonSpecStalls        21644                       # The number of times commit has been forced to stall to communicate backwards
system.switch_cpus1.commit.branchMispredicts      1967308                       # The number of times a branch was mispredicted
[...]
system.cpu3.icache.ReadReq_avg_miss_latency::total 46949.875000                       # average ReadReq miss latency
system.cpu3.icache.demand_avg_miss_latency::switch_cpus3.inst 46949.875000                       # average overall miss latency
system.cpu3.icache.demand_avg_miss_latency::total 46949.875000                       # average overall miss latency
system.cpu3.icache.overall_avg_miss_latency::switch_cpus3.inst 46949.875000                       # average overall miss latency
system.cpu3.icache.overall_avg_miss_latency::total 46949.875000                       # average overall miss latency
system.cpu3.icache.blocked_cycles::no_mshrs            0                       # number of cycles access was blocked
system.cpu3.icache.blocked_cycles::no_targets            0                       # number of cycles access was blocked
system.cpu3.icache.blocked::no_mshrs                0                       # number of cycles access was blocked
system.cpu3.icache.blocked::no_targets              0                       # number of cycles access was blocked
system.cpu3.icache.avg_blocked_cycles::no_mshrs          nan                       # average number of cycles each access was blocked
system.cpu3.icache.avg_blocked_cycles::no_targets          nan                       # average number of cycles each access was blocked
system.cpu3.icache.fast_writes                      0                       # number of fast writes performed
system.cpu3.icache.cache_copies                     0                       # number of cache copies performed
system.cpu3.icache.ReadReq_mshr_hits::switch_cpus3.inst            3                       # number of ReadReq MSHR hits
system.cpu3.icache.ReadReq_mshr_hits::total            3                       # number of ReadReq MSHR hits
system.cpu3.icache.demand_mshr_hits::switch_cpus3.inst            3                       # number of demand (read+write) MSHR hits
system.cpu3.icache.demand_mshr_hits::total            3                       # number of demand (read+write) MSHR hits
system.cpu3.icache.overall_mshr_hits::switch_cpus3.inst            3                       # number of overall MSHR hits
system.cpu3.icache.overall_mshr_hits::total            3                       # number of overall MSHR hits
system.cpu3.icache.ReadReq_mshr_misses::switch_cpus3.inst           13                       # number of ReadReq MSHR misses
system.cpu3.icache.ReadReq_mshr_misses::total           13                       # number of ReadReq MSHR misses
system.cpu3.icache.demand_mshr_misses::switch_cpus3.inst           13                       # number of demand (read+write) MSHR misses
system.cpu3.icache.demand_mshr_misses::total           13                       # number of demand (read+write) MSHR misses
system.cpu3.icache.overall_mshr_misses::switch_cpus3.inst           13                       # number of overall MSHR misses
system.cpu3.icache.overall_mshr_misses::total           13                       # number of overall MSHR misses
system.cpu3.icache.ReadReq_mshr_miss_latency::switch_cpus3.inst       582351                       # number of ReadReq MSHR miss cycles
system.cpu3.icache.ReadReq_mshr_miss_latency::total       582351                       # number of ReadReq MSHR miss cycles
system.cpu3.icache.demand_mshr_miss_latency::switch_cpus3.inst       582351                       # number of demand (read+write) MSHR miss cycles
system.cpu3.icache.demand_mshr_miss_latency::total       582351                       # number of demand (read+write) MSHR miss cycles
system.cpu3.icache.overall_mshr_miss_latency::switch_cpus3.inst       582351                       # number of overall MSHR miss cycles
system.cpu3.icache.overall_mshr_miss_latency::total       582351                       # number of overall MSHR miss cycles
system.cpu3.icache.ReadReq_mshr_miss_rate::switch_cpus3.inst     0.000001                       # mshr miss rate for ReadReq accesses
system.cpu3.icache.ReadReq_mshr_miss_rate::total     0.000001                       # mshr miss rate for ReadReq accesses
system.cpu3.icache.demand_mshr_miss_rate::switch_cpus3.inst     0.000001                       # mshr miss rate for demand accesses
system.cpu3.icache.demand_mshr_miss_rate::total     0.000001                       # mshr miss rate for demand accesses
system.cpu3.icache.overall_mshr_miss_rate::switch_cpus3.inst     0.000001                       # mshr miss rate for overall accesses
system.cpu3.icache.overall_mshr_miss_rate::total     0.000001                       # mshr miss rate for overall accesses
system.cpu3.icache.ReadReq_avg_mshr_miss_latency::switch_cpus3.inst 44796.230769                       # average ReadReq mshr miss latency
system.cpu3.icache.ReadReq_avg_mshr_miss_latency::total 44796.230769                       # average ReadReq mshr miss latency
system.cpu3.icache.demand_avg_mshr_miss_latency::switch_cpus3.inst 44796.230769                       # average overall mshr miss latency
system.cpu3.icache.demand_avg_mshr_miss_latency::total 44796.230769                       # average overall mshr miss latency
system.cpu3.icache.overall_avg_mshr_miss_latency::switch_cpus3.inst 44796.230769                       # average overall mshr miss latency
system.cpu3.icache.overall_avg_mshr_miss_latency::total 44796.230769                       # average overall mshr miss latency
system.cpu3.icache.no_allocate_misses               0                       # Number of misses that were no-allocate
system.cpu3.dcache.replacements                 52286                       # number of replacements
system.cpu3.dcache.tagsinuse                      256                       # Cycle average of tags in use
system.cpu3.dcache.total_refs               174146047                       # Total number of references to valid blocks.
system.cpu3.dcache.sampled_refs                 52542                       # Sample count of references to valid blocks.
system.cpu3.dcache.avg_refs               3314.416029                       # Average number of references to valid blocks.
system.cpu3.dcache.warmup_cycle                     0                       # Cycle when the warmup percentage was hit.
system.cpu3.dcache.occ_blocks::switch_cpus3.data   233.217314                       # Average occupied blocks per requestor
system.cpu3.dcache.occ_blocks::cpu3.data    22.782686                       # Average occupied blocks per requestor
system.cpu3.dcache.occ_percent::switch_cpus3.data     0.911005                       # Average percentage of cache occupancy
system.cpu3.dcache.occ_percent::cpu3.data     0.088995                       # Average percentage of cache occupancy
system.cpu3.dcache.occ_percent::total               1                       # Average percentage of cache occupancy
system.cpu3.dcache.ReadReq_hits::switch_cpus3.data     10445969                       # number of ReadReq hits
system.cpu3.dcache.ReadReq_hits::total       10445969                       # number of ReadReq hits
system.cpu3.dcache.WriteReq_hits::switch_cpus3.data      7196605                       # number of WriteReq hits
system.cpu3.dcache.WriteReq_hits::total       7196605                       # number of WriteReq hits
system.cpu3.dcache.LoadLockedReq_hits::switch_cpus3.data        17616                       # number of LoadLockedReq hits
system.cpu3.dcache.LoadLockedReq_hits::total        17616                       # number of LoadLockedReq hits
system.cpu3.dcache.StoreCondReq_hits::switch_cpus3.data        16696                       # number of StoreCondReq hits
system.cpu3.dcache.StoreCondReq_hits::total        16696                       # number of StoreCondReq hits
system.cpu3.dcache.demand_hits::switch_cpus3.data     17642574                       # number of demand (read+write) hits
system.cpu3.dcache.demand_hits::total        17642574                       # number of demand (read+write) hits
system.cpu3.dcache.overall_hits::switch_cpus3.data     17642574                       # number of overall hits
system.cpu3.dcache.overall_hits::total       17642574                       # number of overall hits
system.cpu3.dcache.ReadReq_misses::switch_cpus3.data       133161                       # number of ReadReq misses
system.cpu3.dcache.ReadReq_misses::total       133161                       # number of ReadReq misses
system.cpu3.dcache.WriteReq_misses::switch_cpus3.data         2992                       # number of WriteReq misses
system.cpu3.dcache.WriteReq_misses::total         2992                       # number of WriteReq misses
system.cpu3.dcache.demand_misses::switch_cpus3.data       136153                       # number of demand (read+write) misses
system.cpu3.dcache.demand_misses::total        136153                       # number of demand (read+write) misses
system.cpu3.dcache.overall_misses::switch_cpus3.data       136153                       # number of overall misses
system.cpu3.dcache.overall_misses::total       136153                       # number of overall misses
system.cpu3.dcache.ReadReq_miss_latency::switch_cpus3.data   4126184158                       # number of ReadReq miss cycles
system.cpu3.dcache.ReadReq_miss_latency::total   4126184158                       # number of ReadReq miss cycles
system.cpu3.dcache.WriteReq_miss_latency::switch_cpus3.data    175765701                       # number of WriteReq miss cycles
system.cpu3.dcache.WriteReq_miss_latency::total    175765701                       # number of WriteReq miss cycles
system.cpu3.dcache.demand_miss_latency::switch_cpus3.data   4301949859                       # number of demand (read+write) miss cycles
system.cpu3.dcache.demand_miss_latency::total   4301949859                       # number of demand (read+write) miss cycles
system.cpu3.dcache.overall_miss_latency::switch_cpus3.data   4301949859                       # number of overall miss cycles
system.cpu3.dcache.overall_miss_latency::total   4301949859                       # number of overall miss cycles
system.cpu3.dcache.ReadReq_accesses::switch_cpus3.data     10579130                       # number of ReadReq accesses(hits+misses)
system.cpu3.dcache.ReadReq_accesses::total     10579130                       # number of ReadReq accesses(hits+misses)
system.cpu3.dcache.WriteReq_accesses::switch_cpus3.data      7199597                       # number of WriteReq accesses(hits+misses)
system.cpu3.dcache.WriteReq_accesses::total      7199597                       # number of WriteReq accesses(hits+misses)
system.cpu3.dcache.LoadLockedReq_accesses::switch_cpus3.data        17616                       # number of LoadLockedReq accesses(hits+misses)
system.cpu3.dcache.LoadLockedReq_accesses::total        17616                       # number of LoadLockedReq accesses(hits+misses)
system.cpu3.dcache.StoreCondReq_accesses::switch_cpus3.data        16696                       # number of StoreCondReq accesses(hits+misses)
system.cpu3.dcache.StoreCondReq_accesses::total        16696                       # number of StoreCondReq accesses(hits+misses)
system.cpu3.dcache.demand_accesses::switch_cpus3.data     17778727                       # number of demand (read+write) accesses
system.cpu3.dcache.demand_accesses::total     17778727                       # number of demand (read+write) accesses
system.cpu3.dcache.overall_accesses::switch_cpus3.data     17778727                       # number of overall (read+write) accesses
system.cpu3.dcache.overall_accesses::total     17778727                       # number of overall (read+write) accesses
system.cpu3.dcache.ReadReq_miss_rate::switch_cpus3.data     0.012587                       # miss rate for ReadReq accesses
system.cpu3.dcache.ReadReq_miss_rate::total     0.012587                       # miss rate for ReadReq accesses
system.cpu3.dcache.WriteReq_miss_rate::switch_cpus3.data     0.000416                       # miss rate for WriteReq accesses
system.cpu3.dcache.WriteReq_miss_rate::total     0.000416                       # miss rate for WriteReq accesses
system.cpu3.dcache.demand_miss_rate::switch_cpus3.data     0.007658                       # miss rate for demand accesses
system.cpu3.dcache.demand_miss_rate::total     0.007658                       # miss rate for demand accesses
system.cpu3.dcache.overall_miss_rate::switch_cpus3.data     0.007658                       # miss rate for overall accesses
system.cpu3.dcache.overall_miss_rate::total     0.007658                       # miss rate for overall accesses
system.cpu3.dcache.ReadReq_avg_miss_latency::switch_cpus3.data 30986.431147                       # average ReadReq miss latency
system.cpu3.dcache.ReadReq_avg_miss_latency::total 30986.431147                       # average ReadReq miss latency
system.cpu3.dcache.WriteReq_avg_miss_latency::switch_cpus3.data 58745.220922                       # average WriteReq miss latency
system.cpu3.dcache.WriteReq_avg_miss_latency::total 58745.220922                       # average WriteReq miss latency
system.cpu3.dcache.demand_avg_miss_latency::switch_cpus3.data 31596.438264                       # average overall miss latency
system.cpu3.dcache.demand_avg_miss_latency::total 31596.438264                       # average overall miss latency
system.cpu3.dcache.overall_avg_miss_latency::switch_cpus3.data 31596.438264                       # average overall miss latency
system.cpu3.dcache.overall_avg_miss_latency::total 31596.438264                       # average overall miss latency
system.cpu3.dcache.blocked_cycles::no_mshrs            0                       # number of cycles access was blocked
system.cpu3.dcache.blocked_cycles::no_targets       458139                       # number of cycles access was blocked
system.cpu3.dcache.blocked::no_mshrs                0                       # number of cycles access was blocked
system.cpu3.dcache.blocked::no_targets             17                       # number of cycles access was blocked
system.cpu3.dcache.avg_blocked_cycles::no_mshrs          nan                       # average number of cycles each access was blocked
system.cpu3.dcache.avg_blocked_cycles::no_targets 26949.352941                       # average number of cycles each access was blocked
system.cpu3.dcache.fast_writes                      0                       # number of fast writes performed
system.cpu3.dcache.cache_copies                     0                       # number of cache copies performed
system.cpu3.dcache.writebacks::writebacks        24555                       # number of writebacks
system.cpu3.dcache.writebacks::total            24555                       # number of writebacks
system.cpu3.dcache.ReadReq_mshr_hits::switch_cpus3.data        80878                       # number of ReadReq MSHR hits
system.cpu3.dcache.ReadReq_mshr_hits::total        80878                       # number of ReadReq MSHR hits
system.cpu3.dcache.WriteReq_mshr_hits::switch_cpus3.data         2989                       # number of WriteReq MSHR hits
system.cpu3.dcache.WriteReq_mshr_hits::total         2989                       # number of WriteReq MSHR hits
system.cpu3.dcache.demand_mshr_hits::switch_cpus3.data        83867                       # number of demand (read+write) MSHR hits
system.cpu3.dcache.demand_mshr_hits::total        83867                       # number of demand (read+write) MSHR hits
system.cpu3.dcache.overall_mshr_hits::switch_cpus3.data        83867                       # number of overall MSHR hits
system.cpu3.dcache.overall_mshr_hits::total        83867                       # number of overall MSHR hits
system.cpu3.dcache.ReadReq_mshr_misses::switch_cpus3.data        52283                       # number of ReadReq MSHR misses
system.cpu3.dcache.ReadReq_mshr_misses::total        52283                       # number of ReadReq MSHR misses
system.cpu3.dcache.WriteReq_mshr_misses::switch_cpus3.data            3                       # number of WriteReq MSHR misses
system.cpu3.dcache.WriteReq_mshr_misses::total            3                       # number of WriteReq MSHR misses
system.cpu3.dcache.demand_mshr_misses::switch_cpus3.data        52286                       # number of demand (read+write) MSHR misses
system.cpu3.dcache.demand_mshr_misses::total        52286                       # number of demand (read+write) MSHR misses
system.cpu3.dcache.overall_mshr_misses::switch_cpus3.data        52286                       # number of overall MSHR misses
system.cpu3.dcache.overall_mshr_misses::total        52286                       # number of overall MSHR misses
system.cpu3.dcache.ReadReq_mshr_miss_latency::switch_cpus3.data    806243811                       # number of ReadReq MSHR miss cycles
system.cpu3.dcache.ReadReq_mshr_miss_latency::total    806243811                       # number of ReadReq MSHR miss cycles
system.cpu3.dcache.WriteReq_mshr_miss_latency::switch_cpus3.data       108829                       # number of WriteReq MSHR miss cycles
system.cpu3.dcache.WriteReq_mshr_miss_latency::total       108829                       # number of WriteReq MSHR miss cycles
system.cpu3.dcache.demand_mshr_miss_latency::switch_cpus3.data    806352640                       # number of demand (read+write) MSHR miss cycles
system.cpu3.dcache.demand_mshr_miss_latency::total    806352640                       # number of demand (read+write) MSHR miss cycles
system.cpu3.dcache.overall_mshr_miss_latency::switch_cpus3.data    806352640                       # number of overall MSHR miss cycles
system.cpu3.dcache.overall_mshr_miss_latency::total    806352640                       # number of overall MSHR miss cycles
system.cpu3.dcache.ReadReq_mshr_miss_rate::switch_cpus3.data     0.004942                       # mshr miss rate for ReadReq accesses
system.cpu3.dcache.ReadReq_mshr_miss_rate::total     0.004942                       # mshr miss rate for ReadReq accesses
system.cpu3.dcache.WriteReq_mshr_miss_rate::switch_cpus3.data     0.000000                       # mshr miss rate for WriteReq accesses
system.cpu3.dcache.WriteReq_mshr_miss_rate::total     0.000000                       # mshr miss rate for WriteReq accesses
system.cpu3.dcache.demand_mshr_miss_rate::switch_cpus3.data     0.002941                       # mshr miss rate for demand accesses
system.cpu3.dcache.demand_mshr_miss_rate::total     0.002941                       # mshr miss rate for demand accesses
system.cpu3.dcache.overall_mshr_miss_rate::switch_cpus3.data     0.002941                       # mshr miss rate for overall accesses
system.cpu3.dcache.overall_mshr_miss_rate::total     0.002941                       # mshr miss rate for overall accesses
system.cpu3.dcache.ReadReq_avg_mshr_miss_latency::switch_cpus3.data 15420.764130                       # average ReadReq mshr miss latency
system.cpu3.dcache.ReadReq_avg_mshr_miss_latency::total 15420.764130                       # average ReadReq mshr miss latency
system.cpu3.dcache.WriteReq_avg_mshr_miss_latency::switch_cpus3.data 36276.333333                       # average WriteReq mshr miss latency
system.cpu3.dcache.WriteReq_avg_mshr_miss_latency::total 36276.333333                       # average WriteReq mshr miss latency
system.cpu3.dcache.demand_avg_mshr_miss_latency::switch_cpus3.data 15421.960754                       # average overall mshr miss latency
system.cpu3.dcache.demand_avg_mshr_miss_latency::total 15421.960754                       # average overall mshr miss latency
system.cpu3.dcache.overall_avg_mshr_miss_latency::switch_cpus3.data 15421.960754                       # average overall mshr miss latency
system.cpu3.dcache.overall_avg_mshr_miss_latency::total 15421.960754                       # average overall mshr miss latency
system.cpu3.dcache.no_allocate_misses               0                       # Number of misses that were no-allocate

---------- End Simulation Statistics   ----------
