
---------- Begin Simulation Statistics ----------
sim_seconds                                  0.003563                       # Number of seconds simulated
sim_ticks                                  3562950165                       # Number of ticks simulated
final_tick                               533127330102                       # Number of ticks from beginning of simulation (restored from checkpoints and never reset)
sim_freq                                 1000000000000                       # Frequency of simulated ticks
host_inst_rate                                 316918                       # Simulator instruction rate (inst/s)
host_op_rate                                   410402                       # Simulator op (including micro ops) rate (op/s)
host_tick_rate                                 285102                       # Simulator tick rate (ticks/s)
host_mem_usage                               16923020                       # Number of bytes of host memory used
host_seconds                                 12497.13                       # Real time elapsed on the host
sim_insts                                  3960566537                       # Number of instructions simulated
sim_ops                                    5128847255                       # Number of ops (including micro ops) simulated
system.physmem.bytes_read::switch_cpus0.inst         1408                       # Number of bytes read from this memory
system.physmem.bytes_read::switch_cpus0.data       225920                       # Number of bytes read from this memory
system.physmem.bytes_read::switch_cpus1.inst         1920                       # Number of bytes read from this memory
system.physmem.bytes_read::switch_cpus1.data       203520                       # Number of bytes read from this memory
system.physmem.bytes_read::switch_cpus2.inst         1664                       # Number of bytes read from this memory
system.physmem.bytes_read::switch_cpus2.data       237568                       # Number of bytes read from this memory
system.physmem.bytes_read::switch_cpus3.inst         1664                       # Number of bytes read from this memory
system.physmem.bytes_read::switch_cpus3.data       129664                       # Number of bytes read from this memory
system.physmem.bytes_read::total               803328                       # Number of bytes read from this memory
system.physmem.bytes_inst_read::switch_cpus0.inst         1408                       # Number of instructions bytes read from this memory
system.physmem.bytes_inst_read::switch_cpus1.inst         1920                       # Number of instructions bytes read from this memory
system.physmem.bytes_inst_read::switch_cpus2.inst         1664                       # Number of instructions bytes read from this memory
system.physmem.bytes_inst_read::switch_cpus3.inst         1664                       # Number of instructions bytes read from this memory
system.physmem.bytes_inst_read::total            6656                       # Number of instructions bytes read from this memory
system.physmem.bytes_written::writebacks       257280                       # Number of bytes written to this memory
system.physmem.bytes_written::total            257280                       # Number of bytes written to this memory
system.physmem.num_reads::switch_cpus0.inst           11                       # Number of read requests responded to by this memory
system.physmem.num_reads::switch_cpus0.data         1765                       # Number of read requests responded to by this memory
system.physmem.num_reads::switch_cpus1.inst           15                       # Number of read requests responded to by this memory
system.physmem.num_reads::switch_cpus1.data         1590                       # Number of read requests responded to by this memory
system.physmem.num_reads::switch_cpus2.inst           13                       # Number of read requests responded to by this memory
system.physmem.num_reads::switch_cpus2.data         1856                       # Number of read requests responded to by this memory
system.physmem.num_reads::switch_cpus3.inst           13                       # Number of read requests responded to by this memory
system.physmem.num_reads::switch_cpus3.data         1013                       # Number of read requests responded to by this memory
system.physmem.num_reads::total                  6276                       # Number of read requests responded to by this memory
system.physmem.num_writes::writebacks            2010                       # Number of write requests responded to by this memory
system.physmem.num_writes::functional               0                       # Number of write requests responded to by this memory
system.physmem.num_writes::interrupt                0                       # Number of write requests responded to by this memory
system.physmem.num_writes::switch_cpus0.dtb.walker            0                       # Number of write requests responded to by this memory
system.physmem.num_writes::switch_cpus0.itb.walker            0                       # Number of write requests responded to by this memory
system.physmem.num_writes::switch_cpus0.inst            0                       # Number of write requests responded to by this memory
system.physmem.num_writes::switch_cpus0.data            0                       # Number of write requests responded to by this memory
system.physmem.num_writes::switch_cpus1.dtb.walker            0                       # Number of write requests responded to by this memory
system.physmem.num_writes::switch_cpus1.itb.walker            0                       # Number of write requests responded to by this memory
system.physmem.num_writes::switch_cpus1.inst            0                       # Number of write requests responded to by this memory
system.physmem.num_writes::switch_cpus1.data            0                       # Number of write requests responded to by this memory
system.physmem.num_writes::switch_cpus2.dtb.walker            0                       # Number of write requests responded to by this memory
system.physmem.num_writes::switch_cpus2.itb.walker            0                       # Number of write requests responded to by this memory
system.physmem.num_writes::switch_cpus2.inst            0                       # Number of write requests responded to by this memory
system.physmem.num_writes::switch_cpus2.data            0                       # Number of write requests responded to by this memory
system.physmem.num_writes::switch_cpus3.dtb.walker            0                       # Number of write requests responded to by this memory
system.physmem.num_writes::switch_cpus3.itb.walker            0                       # Number of write requests responded to by this memory
system.physmem.num_writes::switch_cpus3.inst            0                       # Number of write requests responded to by this memory
system.physmem.num_writes::switch_cpus3.data            0                       # Number of write requests responded to by this memory
system.physmem.num_writes::cpu0.dtb.walker            0                       # Number of write requests responded to by this memory
system.physmem.num_writes::cpu0.itb.walker            0                       # Number of write requests responded to by this memory
system.physmem.num_writes::cpu0.inst                0                       # Number of write requests responded to by this memory
system.physmem.num_writes::cpu0.data                0                       # Number of write requests responded to by this memory
system.physmem.num_writes::cpu1.dtb.walker            0                       # Number of write requests responded to by this memory
system.physmem.num_writes::cpu1.itb.walker            0                       # Number of write requests responded to by this memory
system.physmem.num_writes::cpu1.inst                0                       # Number of write requests responded to by this memory
system.physmem.num_writes::cpu1.data                0                       # Number of write requests responded to by this memory
system.physmem.num_writes::cpu2.dtb.walker            0                       # Number of write requests responded to by this memory
system.physmem.num_writes::cpu2.itb.walker            0                       # Number of write requests responded to by this memory
system.physmem.num_writes::cpu2.inst                0                       # Number of write requests responded to by this memory
system.physmem.num_writes::cpu2.data                0                       # Number of write requests responded to by this memory
system.physmem.num_writes::cpu3.dtb.walker            0                       # Number of write requests responded to by this memory
system.physmem.num_writes::cpu3.itb.walker            0                       # Number of write requests responded to by this memory
system.physmem.num_writes::cpu3.inst                0                       # Number of write requests responded to by this memory
system.physmem.num_writes::cpu3.data                0                       # Number of write requests responded to by this memory
system.physmem.num_writes::total                 2010                       # Number of write requests responded to by this memory
system.physmem.bw_read::switch_cpus0.inst       395178                       # Total read bandwidth from this memory (bytes/s)
system.physmem.bw_read::switch_cpus0.data     63408128                       # Total read bandwidth from this memory (bytes/s)
system.physmem.bw_read::switch_cpus1.inst       538879                       # Total read bandwidth from this memory (bytes/s)
system.physmem.bw_read::switch_cpus1.data     57121203                       # Total read bandwidth from this memory (bytes/s)
system.physmem.bw_read::switch_cpus2.inst       467029                       # Total read bandwidth from this memory (bytes/s)
system.physmem.bw_read::switch_cpus2.data     66677329                       # Total read bandwidth from this memory (bytes/s)
system.physmem.bw_read::switch_cpus3.inst       467029                       # Total read bandwidth from this memory (bytes/s)
system.physmem.bw_read::switch_cpus3.data     36392314                       # Total read bandwidth from this memory (bytes/s)
system.physmem.bw_read::total               225467088                       # Total read bandwidth from this memory (bytes/s)
system.physmem.bw_inst_read::switch_cpus0.inst       395178                       # Instruction read bandwidth from this memory (bytes/s)
system.physmem.bw_inst_read::switch_cpus1.inst       538879                       # Instruction read bandwidth from this memory (bytes/s)
system.physmem.bw_inst_read::switch_cpus2.inst       467029                       # Instruction read bandwidth from this memory (bytes/s)
system.physmem.bw_inst_read::switch_cpus3.inst       467029                       # Instruction read bandwidth from this memory (bytes/s)
system.physmem.bw_inst_read::total            1868115                       # Instruction read bandwidth from this memory (bytes/s)
system.physmem.bw_write::writebacks          72209823                       # Write bandwidth from this memory (bytes/s)
system.physmem.bw_write::total               72209823                       # Write bandwidth from this memory (bytes/s)
system.physmem.bw_total::writebacks          72209823                       # Total bandwidth to/from this memory (bytes/s)
system.physmem.bw_total::switch_cpus0.inst       395178                       # Total bandwidth to/from this memory (bytes/s)
system.physmem.bw_total::switch_cpus0.data     63408128                       # Total bandwidth to/from this memory (bytes/s)
system.physmem.bw_total::switch_cpus1.inst       538879                       # Total bandwidth to/from this memory (bytes/s)
system.physmem.bw_total::switch_cpus1.data     57121203                       # Total bandwidth to/from this memory (bytes/s)
system.physmem.bw_total::switch_cpus2.inst       467029                       # Total bandwidth to/from this memory (bytes/s)
system.physmem.bw_total::switch_cpus2.data     66677329                       # Total bandwidth to/from this memory (bytes/s)
system.physmem.bw_total::switch_cpus3.inst       467029                       # Total bandwidth to/from this memory (bytes/s)
system.physmem.bw_total::switch_cpus3.data     36392314                       # Total bandwidth to/from this memory (bytes/s)
system.physmem.bw_total::total              297676911                       # Total bandwidth to/from this memory (bytes/s)
system.switch_cpus0.dtb.inst_hits                   0                       # ITB inst hits
system.switch_cpus0.dtb.inst_misses                 0                       # ITB inst misses
system.switch_cpus0.dtb.read_hits                   0                       # DTB read hits
system.switch_cpus0.dtb.read_misses                 0                       # DTB read misses
system.switch_cpus0.dtb.write_hits                  0                       # DTB write hits
system.switch_cpus0.dtb.write_misses                0                       # DTB write misses
system.switch_cpus0.dtb.flush_tlb                   0                       # Number of times complete TLB was flushed
system.switch_cpus0.dtb.flush_tlb_mva               0                       # Number of times TLB was flushed by MVA
system.switch_cpus0.dtb.flush_tlb_mva_asid            0                       # Number of times TLB was flushed by MVA & ASID
system.switch_cpus0.dtb.flush_tlb_asid              0                       # Number of times TLB was flushed by ASID
system.switch_cpus0.dtb.flush_entries               0                       # Number of entries that have been flushed from TLB
system.switch_cpus0.dtb.align_faults                0                       # Number of TLB faults due to alignment restrictions
system.switch_cpus0.dtb.prefetch_faults             0                       # Number of TLB faults due to prefetch
system.switch_cpus0.dtb.domain_faults               0                       # Number of TLB faults due to domain restrictions
system.switch_cpus0.dtb.perms_faults                0                       # Number of TLB faults due to permissions restrictions
system.switch_cpus0.dtb.read_accesses               0                       # DTB read accesses
system.switch_cpus0.dtb.write_accesses              0                       # DTB write accesses
system.switch_cpus0.dtb.inst_accesses               0                       # ITB inst accesses
system.switch_cpus0.dtb.hits                        0                       # DTB hits
system.switch_cpus0.dtb.misses                      0                       # DTB misses
system.switch_cpus0.dtb.accesses                    0                       # DTB accesses
system.switch_cpus0.itb.inst_hits                   0                       # ITB inst hits
system.switch_cpus0.itb.inst_misses                 0                       # ITB inst misses
system.switch_cpus0.itb.read_hits                   0                       # DTB read hits
system.switch_cpus0.itb.read_misses                 0                       # DTB read misses
system.switch_cpus0.itb.write_hits                  0                       # DTB write hits
system.switch_cpus0.itb.write_misses                0                       # DTB write misses
system.switch_cpus0.itb.flush_tlb                   0                       # Number of times complete TLB was flushed
system.switch_cpus0.itb.flush_tlb_mva               0                       # Number of times TLB was flushed by MVA
system.switch_cpus0.itb.flush_tlb_mva_asid            0                       # Number of times TLB was flushed by MVA & ASID
system.switch_cpus0.itb.flush_tlb_asid              0                       # Number of times TLB was flushed by ASID
system.switch_cpus0.itb.flush_entries               0                       # Number of entries that have been flushed from TLB
system.switch_cpus0.itb.align_faults                0                       # Number of TLB faults due to alignment restrictions
system.switch_cpus0.itb.prefetch_faults             0                       # Number of TLB faults due to prefetch
system.switch_cpus0.itb.domain_faults               0                       # Number of TLB faults due to domain restrictions
system.switch_cpus0.itb.perms_faults                0                       # Number of TLB faults due to permissions restrictions
system.switch_cpus0.itb.read_accesses               0                       # DTB read accesses
system.switch_cpus0.itb.write_accesses              0                       # DTB write accesses
system.switch_cpus0.itb.inst_accesses               0                       # ITB inst accesses
system.switch_cpus0.itb.hits                        0                       # DTB hits
system.switch_cpus0.itb.misses                      0                       # DTB misses
system.switch_cpus0.itb.accesses                    0                       # DTB accesses
system.cpu0.workload.num_syscalls                   0                       # Number of system calls
system.switch_cpus0.numCycles                 8544246                       # number of cpu cycles simulated
system.switch_cpus0.numWorkItemsStarted             0                       # number of work items this cpu started
system.switch_cpus0.numWorkItemsCompleted            0                       # number of work items this cpu completed
system.switch_cpus0.BPredUnit.lookups         3111812                       # Number of BP lookups
system.switch_cpus0.BPredUnit.condPredicted      2554789                       # Number of conditional branches predicted
system.switch_cpus0.BPredUnit.condIncorrect       203317                       # Number of conditional branches incorrect
system.switch_cpus0.BPredUnit.BTBLookups      1255233                       # Number of BTB lookups
system.switch_cpus0.BPredUnit.BTBHits         1202829                       # Number of BTB hits
system.switch_cpus0.BPredUnit.BTBCorrect            0                       # Number of correct BTB predictions (this stat may not work properly.
system.switch_cpus0.BPredUnit.usedRAS          315056                       # Number of times the RAS was used to get a target.
system.switch_cpus0.BPredUnit.RASInCorrect         8809                       # Number of incorrect RAS predictions.
system.switch_cpus0.fetch.icacheStallCycles      3204865                       # Number of cycles fetch is stalled on an Icache miss
system.switch_cpus0.fetch.Insts              17080179                       # Number of instructions fetch has processed
system.switch_cpus0.fetch.Branches            3111812                       # Number of branches that fetch encountered
system.switch_cpus0.fetch.predictedBranches      1517885                       # Number of branches that fetch has predicted taken
system.switch_cpus0.fetch.Cycles              3664688                       # Number of cycles fetch has run and was not squashing or blocked
system.switch_cpus0.fetch.SquashCycles        1087358                       # Number of cycles fetch has spent squashing
system.switch_cpus0.fetch.BlockedCycles        684721                       # Number of cycles fetch has spent blocked
system.switch_cpus0.fetch.PendingTrapStallCycles            1                       # Number of stall cycles due to pending traps
system.switch_cpus0.fetch.CacheLines          1566162                       # Number of cache lines fetched
system.switch_cpus0.fetch.IcacheSquashes        79745                       # Number of outstanding Icache misses that were squashed
system.switch_cpus0.fetch.rateDist::samples      8435254                       # Number of instructions fetched each cycle (Total)
system.switch_cpus0.fetch.rateDist::mean     2.488807                       # Number of instructions fetched each cycle (Total)
system.switch_cpus0.fetch.rateDist::stdev     3.337183                       # Number of instructions fetched each cycle (Total)
system.switch_cpus0.fetch.rateDist::underflows            0      0.00%      0.00% # Number of instructions fetched each cycle (Total)
system.switch_cpus0.fetch.rateDist::0         4770566     56.56%     56.56% # Number of instructions fetched each cycle (Total)
system.switch_cpus0.fetch.rateDist::1          366298      4.34%     60.90% # Number of instructions fetched each cycle (Total)
system.switch_cpus0.fetch.rateDist::2          317780      3.77%     64.66% # Number of instructions fetched each cycle (Total)
system.switch_cpus0.fetch.rateDist::3          343294      4.07%     68.73% # Number of instructions fetched each cycle (Total)
system.switch_cpus0.fetch.rateDist::4          298908      3.54%     72.28% # Number of instructions fetched each cycle (Total)
system.switch_cpus0.fetch.rateDist::5          155542      1.84%     74.12% # Number of instructions fetched each cycle (Total)
system.switch_cpus0.fetch.rateDist::6          101846      1.21%     75.33% # Number of instructions fetched each cycle (Total)
system.switch_cpus0.fetch.rateDist::7          270595      3.21%     78.54% # Number of instructions fetched each cycle (Total)
system.switch_cpus0.fetch.rateDist::8         1810425     21.46%    100.00% # Number of instructions fetched each cycle (Total)
system.switch_cpus0.fetch.rateDist::overflows            0      0.00%    100.00% # Number of instructions fetched each cycle (Total)
system.switch_cpus0.fetch.rateDist::min_value            0                       # Number of instructions fetched each cycle (Total)
system.switch_cpus0.fetch.rateDist::max_value            8                       # Number of instructions fetched each cycle (Total)
system.switch_cpus0.fetch.rateDist::total      8435254                       # Number of instructions fetched each cycle (Total)
system.switch_cpus0.fetch.branchRate         0.364200                       # Number of branch fetches per cycle
system.switch_cpus0.fetch.rate               1.999027                       # Number of inst fetches per cycle
system.switch_cpus0.decode.IdleCycles         3373730                       # Number of cycles decode is idle
system.switch_cpus0.decode.BlockedCycles       641583                       # Number of cycles decode is blocked
system.switch_cpus0.decode.RunCycles          3483456                       # Number of cycles decode is running
system.switch_cpus0.decode.UnblockCycles        56344                       # Number of cycles decode is unblocking
system.switch_cpus0.decode.SquashCycles        880132                       # Number of cycles decode is squashing
system.switch_cpus0.decode.BranchResolved       507155                       # Number of times decode resolved a branch
system.switch_cpus0.decode.BranchMispred         1143                       # Number of times decode detected a branch misprediction
system.switch_cpus0.decode.DecodedInsts      20253744                       # Number of instructions handled by decode
system.switch_cpus0.decode.SquashedInsts         6369                       # Number of squashed instructions handled by decode
system.switch_cpus0.rename.SquashCycles        880132                       # Number of cycles rename is squashing
system.switch_cpus0.rename.IdleCycles         3542592                       # Number of cycles rename is idle
system.switch_cpus0.rename.BlockCycles         294993                       # Number of cycles rename is blocking
system.switch_cpus0.rename.serializeStallCycles        70397                       # count of cycles rename stalled for serializing inst
system.switch_cpus0.rename.RunCycles          3367618                       # Number of cycles rename is running
system.switch_cpus0.rename.UnblockCycles       279514                       # Number of cycles rename is unblocking
system.switch_cpus0.rename.RenamedInsts      19560844                       # Number of instructions processed by rename
system.switch_cpus0.rename.ROBFullEvents          743                       # Number of times rename has blocked due to ROB full
system.switch_cpus0.rename.IQFullEvents        175706                       # Number of times rename has blocked due to IQ full
system.switch_cpus0.rename.LSQFullEvents        76543                       # Number of times rename has blocked due to LSQ full
system.switch_cpus0.rename.FullRegisterEvents            1                       # Number of times there has been no free registers
system.switch_cpus0.rename.RenamedOperands     27167822                       # Number of destination operands rename has renamed
system.switch_cpus0.rename.RenameLookups     91190379                       # Number of register rename lookups that rename has made
system.switch_cpus0.rename.int_rename_lookups     91190379                       # Number of integer rename lookups
system.switch_cpus0.rename.CommittedMaps     16806914                       # Number of HB maps that are committed
system.switch_cpus0.rename.UndoneMaps        10360845                       # Number of HB maps that are undone due to squashing
system.switch_cpus0.rename.serializingInsts         3279                       # count of serializing insts renamed
system.switch_cpus0.rename.tempSerializingInsts         1682                       # count of temporary serializing insts renamed
system.switch_cpus0.rename.skidInsts           742544                       # count of insts added to the skid buffer
system.switch_cpus0.memDep0.insertedLoads      1940856                       # Number of loads inserted to the mem dependence unit.
system.switch_cpus0.memDep0.insertedStores      1007868                       # Number of stores inserted to the mem dependence unit.
system.switch_cpus0.memDep0.conflictingLoads        26517                       # Number of conflicting loads.
system.switch_cpus0.memDep0.conflictingStores       350042                       # Number of conflicting stores.
system.switch_cpus0.iq.iqInstsAdded          18434159                       # Number of instructions added to the IQ (excludes non-spec)
system.switch_cpus0.iq.iqNonSpecInstsAdded         3276                       # Number of non-speculative instructions added to the IQ
system.switch_cpus0.iq.iqInstsIssued         14780706                       # Number of instructions issued
system.switch_cpus0.iq.iqSquashedInstsIssued        28324                       # Number of squashed instructions issued
system.switch_cpus0.iq.iqSquashedInstsExamined      6153879                       # Number of squashed instructions iterated over during squash; mainly for profiling
system.switch_cpus0.iq.iqSquashedOperandsExamined     18817472                       # Number of squashed operands that are examined and possibly removed from graph
system.switch_cpus0.iq.iqSquashedNonSpecRemoved           80                       # Number of squashed non-spec instructions that were removed
system.switch_cpus0.iq.issued_per_cycle::samples      8435254                       # Number of insts issued each cycle
system.switch_cpus0.iq.issued_per_cycle::mean     1.752254                       # Number of insts issued each cycle
system.switch_cpus0.iq.issued_per_cycle::stdev     1.906940                       # Number of insts issued each cycle
system.switch_cpus0.iq.issued_per_cycle::underflows            0      0.00%      0.00% # Number of insts issued each cycle
system.switch_cpus0.iq.issued_per_cycle::0      3010206     35.69%     35.69% # Number of insts issued each cycle
system.switch_cpus0.iq.issued_per_cycle::1      1778540     21.08%     56.77% # Number of insts issued each cycle
system.switch_cpus0.iq.issued_per_cycle::2      1211796     14.37%     71.14% # Number of insts issued each cycle
system.switch_cpus0.iq.issued_per_cycle::3       764895      9.07%     80.20% # Number of insts issued each cycle
system.switch_cpus0.iq.issued_per_cycle::4       748102      8.87%     89.07% # Number of insts issued each cycle
system.switch_cpus0.iq.issued_per_cycle::5       443442      5.26%     94.33% # Number of insts issued each cycle
system.switch_cpus0.iq.issued_per_cycle::6       338711      4.02%     98.35% # Number of insts issued each cycle
system.switch_cpus0.iq.issued_per_cycle::7        74491      0.88%     99.23% # Number of insts issued each cycle
system.switch_cpus0.iq.issued_per_cycle::8        65071      0.77%    100.00% # Number of insts issued each cycle
system.switch_cpus0.iq.issued_per_cycle::overflows            0      0.00%    100.00% # Number of insts issued each cycle
system.switch_cpus0.iq.issued_per_cycle::min_value            0                       # Number of insts issued each cycle
system.switch_cpus0.iq.issued_per_cycle::max_value            8                       # Number of insts issued each cycle
system.switch_cpus0.iq.issued_per_cycle::total      8435254                       # Number of insts issued each cycle
system.switch_cpus0.iq.fu_full::No_OpClass            0      0.00%      0.00% # attempts to use FU when none available
system.switch_cpus0.iq.fu_full::IntAlu         108704     69.62%     69.62% # attempts to use FU when none available
system.switch_cpus0.iq.fu_full::IntMult             6      0.00%     69.63% # attempts to use FU when none available
system.switch_cpus0.iq.fu_full::IntDiv              0      0.00%     69.63% # attempts to use FU when none available
system.switch_cpus0.iq.fu_full::FloatAdd            0      0.00%     69.63% # attempts to use FU when none available
system.switch_cpus0.iq.fu_full::FloatCmp            0      0.00%     69.63% # attempts to use FU when none available
system.switch_cpus0.iq.fu_full::FloatCvt            0      0.00%     69.63% # attempts to use FU when none available
system.switch_cpus0.iq.fu_full::FloatMult            0      0.00%     69.63% # attempts to use FU when none available
system.switch_cpus0.iq.fu_full::FloatDiv            0      0.00%     69.63% # attempts to use FU when none available
system.switch_cpus0.iq.fu_full::FloatSqrt            0      0.00%     69.63% # attempts to use FU when none available
system.switch_cpus0.iq.fu_full::SimdAdd             0      0.00%     69.63% # attempts to use FU when none available
system.switch_cpus0.iq.fu_full::SimdAddAcc            0      0.00%     69.63% # attempts to use FU when none available
system.switch_cpus0.iq.fu_full::SimdAlu             0      0.00%     69.63% # attempts to use FU when none available
system.switch_cpus0.iq.fu_full::SimdCmp             0      0.00%     69.63% # attempts to use FU when none available
system.switch_cpus0.iq.fu_full::SimdCvt             0      0.00%     69.63% # attempts to use FU when none available
system.switch_cpus0.iq.fu_full::SimdMisc            0      0.00%     69.63% # attempts to use FU when none available
system.switch_cpus0.iq.fu_full::SimdMult            0      0.00%     69.63% # attempts to use FU when none available
system.switch_cpus0.iq.fu_full::SimdMultAcc            0      0.00%     69.63% # attempts to use FU when none available
system.switch_cpus0.iq.fu_full::SimdShift            0      0.00%     69.63% # attempts to use FU when none available
system.switch_cpus0.iq.fu_full::SimdShiftAcc            0      0.00%     69.63% # attempts to use FU when none available
system.switch_cpus0.iq.fu_full::SimdSqrt            0      0.00%     69.63% # attempts to use FU when none available
system.switch_cpus0.iq.fu_full::SimdFloatAdd            0      0.00%     69.63% # attempts to use FU when none available
system.switch_cpus0.iq.fu_full::SimdFloatAlu            0      0.00%     69.63% # attempts to use FU when none available
system.switch_cpus0.iq.fu_full::SimdFloatCmp            0      0.00%     69.63% # attempts to use FU when none available
system.switch_cpus0.iq.fu_full::SimdFloatCvt            0      0.00%     69.63% # attempts to use FU when none available
system.switch_cpus0.iq.fu_full::SimdFloatDiv            0      0.00%     69.63% # attempts to use FU when none available
system.switch_cpus0.iq.fu_full::SimdFloatMisc            0      0.00%     69.63% # attempts to use FU when none available
system.switch_cpus0.iq.fu_full::SimdFloatMult            0      0.00%     69.63% # attempts to use FU when none available
system.switch_cpus0.iq.fu_full::SimdFloatMultAcc            0      0.00%     69.63% # attempts to use FU when none available
system.switch_cpus0.iq.fu_full::SimdFloatSqrt            0      0.00%     69.63% # attempts to use FU when none available
system.switch_cpus0.iq.fu_full::MemRead         21153     13.55%     83.17% # attempts to use FU when none available
system.switch_cpus0.iq.fu_full::MemWrite        26272     16.83%    100.00% # attempts to use FU when none available
system.switch_cpus0.iq.fu_full::IprAccess            0      0.00%    100.00% # attempts to use FU when none available
system.switch_cpus0.iq.fu_full::InstPrefetch            0      0.00%    100.00% # attempts to use FU when none available
system.switch_cpus0.iq.FU_type_0::No_OpClass            0      0.00%      0.00% # Type of FU issued
system.switch_cpus0.iq.FU_type_0::IntAlu     12151012     82.21%     82.21% # Type of FU issued
system.switch_cpus0.iq.FU_type_0::IntMult       201062      1.36%     83.57% # Type of FU issued
system.switch_cpus0.iq.FU_type_0::IntDiv            0      0.00%     83.57% # Type of FU issued
system.switch_cpus0.iq.FU_type_0::FloatAdd            0      0.00%     83.57% # Type of FU issued
system.switch_cpus0.iq.FU_type_0::FloatCmp            0      0.00%     83.57% # Type of FU issued
system.switch_cpus0.iq.FU_type_0::FloatCvt            0      0.00%     83.57% # Type of FU issued
system.switch_cpus0.iq.FU_type_0::FloatMult            0      0.00%     83.57% # Type of FU issued
system.switch_cpus0.iq.FU_type_0::FloatDiv            0      0.00%     83.57% # Type of FU issued
system.switch_cpus0.iq.FU_type_0::FloatSqrt            0      0.00%     83.57% # Type of FU issued
system.switch_cpus0.iq.FU_type_0::SimdAdd            0      0.00%     83.57% # Type of FU issued
system.switch_cpus0.iq.FU_type_0::SimdAddAcc            0      0.00%     83.57% # Type of FU issued
system.switch_cpus0.iq.FU_type_0::SimdAlu            0      0.00%     83.57% # Type of FU issued
system.switch_cpus0.iq.FU_type_0::SimdCmp            0      0.00%     83.57% # Type of FU issued
system.switch_cpus0.iq.FU_type_0::SimdCvt            0      0.00%     83.57% # Type of FU issued
system.switch_cpus0.iq.FU_type_0::SimdMisc            0      0.00%     83.57% # Type of FU issued
system.switch_cpus0.iq.FU_type_0::SimdMult            0      0.00%     83.57% # Type of FU issued
system.switch_cpus0.iq.FU_type_0::SimdMultAcc            0      0.00%     83.57% # Type of FU issued
system.switch_cpus0.iq.FU_type_0::SimdShift            0      0.00%     83.57% # Type of FU issued
system.switch_cpus0.iq.FU_type_0::SimdShiftAcc            0      0.00%     83.57% # Type of FU issued
system.switch_cpus0.iq.FU_type_0::SimdSqrt            0      0.00%     83.57% # Type of FU issued
system.switch_cpus0.iq.FU_type_0::SimdFloatAdd            0      0.00%     83.57% # Type of FU issued
system.switch_cpus0.iq.FU_type_0::SimdFloatAlu            0      0.00%     83.57% # Type of FU issued
system.switch_cpus0.iq.FU_type_0::SimdFloatCmp            0      0.00%     83.57% # Type of FU issued
system.switch_cpus0.iq.FU_type_0::SimdFloatCvt            0      0.00%     83.57% # Type of FU issued
system.switch_cpus0.iq.FU_type_0::SimdFloatDiv            0      0.00%     83.57% # Type of FU issued
system.switch_cpus0.iq.FU_type_0::SimdFloatMisc         1597      0.01%     83.58% # Type of FU issued
system.switch_cpus0.iq.FU_type_0::SimdFloatMult            0      0.00%     83.58% # Type of FU issued
system.switch_cpus0.iq.FU_type_0::SimdFloatMultAcc            0      0.00%     83.58% # Type of FU issued
system.switch_cpus0.iq.FU_type_0::SimdFloatSqrt            0      0.00%     83.58% # Type of FU issued
system.switch_cpus0.iq.FU_type_0::MemRead      1580438     10.69%     94.27% # Type of FU issued
system.switch_cpus0.iq.FU_type_0::MemWrite       846597      5.73%    100.00% # Type of FU issued
system.switch_cpus0.iq.FU_type_0::IprAccess            0      0.00%    100.00% # Type of FU issued
system.switch_cpus0.iq.FU_type_0::InstPrefetch            0      0.00%    100.00% # Type of FU issued
system.switch_cpus0.iq.FU_type_0::total      14780706                       # Type of FU issued
system.switch_cpus0.iq.rate                  1.729902                       # Inst issue rate
system.switch_cpus0.iq.fu_busy_cnt             156135                       # FU busy when requested
system.switch_cpus0.iq.fu_busy_rate          0.010563                       # FU busy rate (busy events/executed inst)
system.switch_cpus0.iq.int_inst_queue_reads     38181123                       # Number of integer instruction queue reads
system.switch_cpus0.iq.int_inst_queue_writes     24591451                       # Number of integer instruction queue writes
system.switch_cpus0.iq.int_inst_queue_wakeup_accesses     14365076                       # Number of integer instruction queue wakeup accesses
system.switch_cpus0.iq.fp_inst_queue_reads            0                       # Number of floating instruction queue reads
system.switch_cpus0.iq.fp_inst_queue_writes            0                       # Number of floating instruction queue writes
system.switch_cpus0.iq.fp_inst_queue_wakeup_accesses            0                       # Number of floating instruction queue wakeup accesses
system.switch_cpus0.iq.int_alu_accesses      14936841                       # Number of integer alu accesses
system.switch_cpus0.iq.fp_alu_accesses              0                       # Number of floating point alu accesses
system.switch_cpus0.iew.lsq.thread0.forwLoads        26607                       # Number of loads that had data forwarded from stores
system.switch_cpus0.iew.lsq.thread0.invAddrLoads            0                       # Number of loads ignored due to an invalid address
system.switch_cpus0.iew.lsq.thread0.squashedLoads       711653                       # Number of loads squashed
system.switch_cpus0.iew.lsq.thread0.ignoredResponses           26                       # Number of memory responses ignored because the instruction is squashed
system.switch_cpus0.iew.lsq.thread0.memOrderViolation          139                       # Number of memory ordering violations
system.switch_cpus0.iew.lsq.thread0.squashedStores       227968                       # Number of stores squashed
system.switch_cpus0.iew.lsq.thread0.invAddrSwpfs            0                       # Number of software prefetches ignored due to an invalid address
system.switch_cpus0.iew.lsq.thread0.blockedLoads            0                       # Number of blocked loads due to partial load-store forwarding
system.switch_cpus0.iew.lsq.thread0.rescheduledLoads           70                       # Number of loads that were rescheduled
system.switch_cpus0.iew.lsq.thread0.cacheBlocked            0                       # Number of times an access to memory failed due to the cache being blocked
system.switch_cpus0.iew.iewIdleCycles               0                       # Number of cycles IEW is idle
system.switch_cpus0.iew.iewSquashCycles        880132                       # Number of cycles IEW is squashing
system.switch_cpus0.iew.iewBlockCycles         218639                       # Number of cycles IEW is blocking
system.switch_cpus0.iew.iewUnblockCycles        17036                       # Number of cycles IEW is unblocking
system.switch_cpus0.iew.iewDispatchedInsts     18437435                       # Number of instructions dispatched to IQ
system.switch_cpus0.iew.iewDispSquashedInsts        30116                       # Number of squashed instructions skipped by dispatch
system.switch_cpus0.iew.iewDispLoadInsts      1940856                       # Number of dispatched load instructions
system.switch_cpus0.iew.iewDispStoreInsts      1007868                       # Number of dispatched store instructions
system.switch_cpus0.iew.iewDispNonSpecInsts         1678                       # Number of dispatched non-speculative instructions
system.switch_cpus0.iew.iewIQFullEvents         12286                       # Number of times the IQ has become full, causing a stall
system.switch_cpus0.iew.iewLSQFullEvents          913                       # Number of times the LSQ has become full, causing a stall
system.switch_cpus0.iew.memOrderViolationEvents          139                       # Number of memory order violations
system.switch_cpus0.iew.predictedTakenIncorrect       122560                       # Number of branches that were predicted taken incorrectly
system.switch_cpus0.iew.predictedNotTakenIncorrect       115632                       # Number of branches that were predicted not taken incorrectly
system.switch_cpus0.iew.branchMispredicts       238192                       # Number of branch mispredicts detected at execute
system.switch_cpus0.iew.iewExecutedInsts     14522566                       # Number of executed instructions
system.switch_cpus0.iew.iewExecLoadInsts      1486357                       # Number of load instructions executed
system.switch_cpus0.iew.iewExecSquashedInsts       258138                       # Number of squashed instructions skipped in execute
system.switch_cpus0.iew.exec_swp                    0                       # number of swp insts executed
system.switch_cpus0.iew.exec_nop                    0                       # number of nop insts executed
system.switch_cpus0.iew.exec_refs             2309827                       # number of memory reference insts executed
system.switch_cpus0.iew.exec_branches         2057955                       # Number of branches executed
system.switch_cpus0.iew.exec_stores            823470                       # Number of stores executed
system.switch_cpus0.iew.exec_rate            1.699690                       # Inst execution rate
system.switch_cpus0.iew.wb_sent              14380052                       # cumulative count of insts sent to commit
system.switch_cpus0.iew.wb_count             14365076                       # cumulative count of insts written-back
system.switch_cpus0.iew.wb_producers          9367536                       # num instructions producing a value
system.switch_cpus0.iew.wb_consumers         26154672                       # num instructions consuming a value
system.switch_cpus0.iew.wb_penalized                0                       # number of instrctions required to write to 'other' IQ
system.switch_cpus0.iew.wb_rate              1.681257                       # insts written-back per cycle
system.switch_cpus0.iew.wb_fanout            0.358159                       # average fanout of values written-back
system.switch_cpus0.iew.wb_penalized_rate            0                       # fraction of instructions written-back that wrote to 'other' IQ
system.switch_cpus0.commit.commitCommittedInsts     10000000                       # The number of committed instructions
system.switch_cpus0.commit.commitCommittedOps     12239327                       # The number of committed instructions
system.switch_cpus0.commit.commitSquashedInsts      6198507                       # The number of squashed insts skipped by commit
system.switch_cpus0.commit.commitNonSpecStalls         3196                       # The number of times commit has been forced to stall to communicate backwards
system.switch_cpus0.commit.branchMispredicts       205438                       # The number of times a branch was mispredicted
system.switch_cpus0.commit.committed_per_cycle::samples      7555122                       # Number of insts commited each cycle
system.switch_cpus0.commit.committed_per_cycle::mean     1.620004                       # Number of insts commited each cycle
system.switch_cpus0.commit.committed_per_cycle::stdev     2.170872                       # Number of insts commited each cycle
system.switch_cpus0.commit.committed_per_cycle::underflows            0      0.00%      0.00% # Number of insts commited each cycle
system.switch_cpus0.commit.committed_per_cycle::0      3030229     40.11%     40.11% # Number of insts commited each cycle
system.switch_cpus0.commit.committed_per_cycle::1      2041084     27.02%     67.12% # Number of insts commited each cycle
system.switch_cpus0.commit.committed_per_cycle::2       834055     11.04%     78.16% # Number of insts commited each cycle
system.switch_cpus0.commit.committed_per_cycle::3       428097      5.67%     83.83% # Number of insts commited each cycle
system.switch_cpus0.commit.committed_per_cycle::4       369593      4.89%     88.72% # Number of insts commited each cycle
system.switch_cpus0.commit.committed_per_cycle::5       181788      2.41%     91.13% # Number of insts commited each cycle
system.switch_cpus0.commit.committed_per_cycle::6       200900      2.66%     93.79% # Number of insts commited each cycle
system.switch_cpus0.commit.committed_per_cycle::7       101878      1.35%     95.14% # Number of insts commited each cycle
system.switch_cpus0.commit.committed_per_cycle::8       367498      4.86%    100.00% # Number of insts commited each cycle
system.switch_cpus0.commit.committed_per_cycle::overflows            0      0.00%    100.00% # Number of insts commited each cycle
system.switch_cpus0.commit.committed_per_cycle::min_value            0                       # Number of insts commited each cycle
system.switch_cpus0.commit.committed_per_cycle::max_value            8                       # Number of insts commited each cycle
system.switch_cpus0.commit.committed_per_cycle::total      7555122                       # Number of insts commited each cycle
system.switch_cpus0.commit.committedInsts     10000000                       # Number of instructions committed
system.switch_cpus0.commit.committedOps      12239327                       # Number of ops (including micro ops) committed
system.switch_cpus0.commit.swp_count                0                       # Number of s/w prefetches committed
system.switch_cpus0.commit.refs               2009100                       # Number of memory references committed
system.switch_cpus0.commit.loads              1229200                       # Number of loads committed
system.switch_cpus0.commit.membars               1598                       # Number of memory barriers committed
system.switch_cpus0.commit.branches           1755939                       # Number of branches committed
system.switch_cpus0.commit.fp_insts                 0                       # Number of committed floating point instructions.
system.switch_cpus0.commit.int_insts         11011698                       # Number of committed integer instructions.
system.switch_cpus0.commit.function_calls       240662                       # Number of function calls committed.
system.switch_cpus0.commit.bw_lim_events       367498                       # number cycles where commit BW limit reached
system.switch_cpus0.commit.bw_limited               0                       # number of insts not committed due to BW limits
system.switch_cpus0.rob.rob_reads            25625458                       # The number of ROB reads
system.switch_cpus0.rob.rob_writes           37756765                       # The number of ROB writes
system.switch_cpus0.timesIdled                   4100                       # Number of times that the entire CPU went into an idle state and unscheduled itself
system.switch_cpus0.idleCycles                 108992                       # Total number of cycles that the CPU has spent unscheduled due to idling
system.switch_cpus0.committedInsts           10000000                       # Number of Instructions Simulated
system.switch_cpus0.committedOps             12239327                       # Number of Ops (including micro ops) Simulated
system.switch_cpus0.committedInsts_total     10000000                       # Number of Instructions Simulated
system.switch_cpus0.cpi                      0.854425                       # CPI: Cycles Per Instruction
system.switch_cpus0.cpi_total                0.854425                       # CPI: Total CPI of All Threads
system.switch_cpus0.ipc                      1.170378                       # IPC: Instructions Per Cycle
system.switch_cpus0.ipc_total                1.170378                       # IPC: Total IPC of All Threads
system.switch_cpus0.int_regfile_reads        65578947                       # number of integer regfile reads
system.switch_cpus0.int_regfile_writes       19699904                       # number of integer regfile writes
system.switch_cpus0.misc_regfile_reads       19003497                       # number of misc regfile reads
system.switch_cpus0.misc_regfile_writes          3196                       # number of misc regfile writes
system.switch_cpus1.dtb.inst_hits                   0                       # ITB inst hits
system.switch_cpus1.dtb.inst_misses                 0                       # ITB inst misses
system.switch_cpus1.dtb.read_hits                   0                       # DTB read hits
system.switch_cpus1.dtb.read_misses                 0                       # DTB read misses
system.switch_cpus1.dtb.write_hits                  0                       # DTB write hits
system.switch_cpus1.dtb.write_misses                0                       # DTB write misses
system.switch_cpus1.dtb.flush_tlb                   0                       # Number of times complete TLB was flushed
system.switch_cpus1.dtb.flush_tlb_mva               0                       # Number of times TLB was flushed by MVA
system.switch_cpus1.dtb.flush_tlb_mva_asid            0                       # Number of times TLB was flushed by MVA & ASID
system.switch_cpus1.dtb.flush_tlb_asid              0                       # Number of times TLB was flushed by ASID
system.switch_cpus1.dtb.flush_entries               0                       # Number of entries that have been flushed from TLB
system.switch_cpus1.dtb.align_faults                0                       # Number of TLB faults due to alignment restrictions
system.switch_cpus1.dtb.prefetch_faults             0                       # Number of TLB faults due to prefetch
system.switch_cpus1.dtb.domain_faults               0                       # Number of TLB faults due to domain restrictions
system.switch_cpus1.dtb.perms_faults                0                       # Number of TLB faults due to permissions restrictions
system.switch_cpus1.dtb.read_accesses               0                       # DTB read accesses
system.switch_cpus1.dtb.write_accesses              0                       # DTB write accesses
system.switch_cpus1.dtb.inst_accesses               0                       # ITB inst accesses
system.switch_cpus1.dtb.hits                        0                       # DTB hits
system.switch_cpus1.dtb.misses                      0                       # DTB misses
system.switch_cpus1.dtb.accesses                    0                       # DTB accesses
system.switch_cpus1.itb.inst_hits                   0                       # ITB inst hits
system.switch_cpus1.itb.inst_misses                 0                       # ITB inst misses
system.switch_cpus1.itb.read_hits                   0                       # DTB read hits
system.switch_cpus1.itb.read_misses                 0                       # DTB read misses
system.switch_cpus1.itb.write_hits                  0                       # DTB write hits
system.switch_cpus1.itb.write_misses                0                       # DTB write misses
system.switch_cpus1.itb.flush_tlb                   0                       # Number of times complete TLB was flushed
system.switch_cpus1.itb.flush_tlb_mva               0                       # Number of times TLB was flushed by MVA
system.switch_cpus1.itb.flush_tlb_mva_asid            0                       # Number of times TLB was flushed by MVA & ASID
system.switch_cpus1.itb.flush_tlb_asid              0                       # Number of times TLB was flushed by ASID
system.switch_cpus1.itb.flush_entries               0                       # Number of entries that have been flushed from TLB
system.switch_cpus1.itb.align_faults                0                       # Number of TLB faults due to alignment restrictions
system.switch_cpus1.itb.prefetch_faults             0                       # Number of TLB faults due to prefetch
system.switch_cpus1.itb.domain_faults               0                       # Number of TLB faults due to domain restrictions
system.switch_cpus1.itb.perms_faults                0                       # Number of TLB faults due to permissions restrictions
system.switch_cpus1.itb.read_accesses               0                       # DTB read accesses
system.switch_cpus1.itb.write_accesses              0                       # DTB write accesses
system.switch_cpus1.itb.inst_accesses               0                       # ITB inst accesses
system.switch_cpus1.itb.hits                        0                       # DTB hits
system.switch_cpus1.itb.misses                      0                       # DTB misses
system.switch_cpus1.itb.accesses                    0                       # DTB accesses
system.cpu1.workload.num_syscalls                   0                       # Number of system calls
system.switch_cpus1.numCycles                 8544246                       # number of cpu cycles simulated
system.switch_cpus1.numWorkItemsStarted             0                       # number of work items this cpu started
system.switch_cpus1.numWorkItemsCompleted            0                       # number of work items this cpu completed
system.switch_cpus1.BPredUnit.lookups         3126956                       # Number of BP lookups
system.switch_cpus1.BPredUnit.condPredicted      2728582                       # Number of conditional branches predicted
system.switch_cpus1.BPredUnit.condIncorrect       199746                       # Number of conditional branches incorrect
system.switch_cpus1.BPredUnit.BTBLookups      1546523                       # Number of BTB lookups
system.switch_cpus1.BPredUnit.BTBHits         1492715                       # Number of BTB hits
system.switch_cpus1.BPredUnit.BTBCorrect            0                       # Number of correct BTB predictions (this stat may not work properly.
system.switch_cpus1.BPredUnit.usedRAS          226568                       # Number of times the RAS was used to get a target.
system.switch_cpus1.BPredUnit.RASInCorrect         6435                       # Number of incorrect RAS predictions.
system.switch_cpus1.fetch.icacheStallCycles      3663948                       # Number of cycles fetch is stalled on an Icache miss
system.switch_cpus1.fetch.Insts              17372952                       # Number of instructions fetch has processed
system.switch_cpus1.fetch.Branches            3126956                       # Number of branches that fetch encountered
system.switch_cpus1.fetch.predictedBranches      1719283                       # Number of branches that fetch has predicted taken
system.switch_cpus1.fetch.Cycles              3582590                       # Number of cycles fetch has run and was not squashing or blocked
system.switch_cpus1.fetch.SquashCycles         981772                       # Number of cycles fetch has spent squashing
system.switch_cpus1.fetch.BlockedCycles        419443                       # Number of cycles fetch has spent blocked
system.switch_cpus1.fetch.PendingTrapStallCycles           30                       # Number of stall cycles due to pending traps
system.switch_cpus1.fetch.CacheLines          1806333                       # Number of cache lines fetched
system.switch_cpus1.fetch.IcacheSquashes        80101                       # Number of outstanding Icache misses that were squashed
system.switch_cpus1.fetch.rateDist::samples      8446892                       # Number of instructions fetched each cycle (Total)
system.switch_cpus1.fetch.rateDist::mean     2.372505                       # Number of instructions fetched each cycle (Total)
system.switch_cpus1.fetch.rateDist::stdev     3.176442                       # Number of instructions fetched each cycle (Total)
system.switch_cpus1.fetch.rateDist::underflows            0      0.00%      0.00% # Number of instructions fetched each cycle (Total)
system.switch_cpus1.fetch.rateDist::0         4864302     57.59%     57.59% # Number of instructions fetched each cycle (Total)
system.switch_cpus1.fetch.rateDist::1          179477      2.12%     59.71% # Number of instructions fetched each cycle (Total)
system.switch_cpus1.fetch.rateDist::2          327541      3.88%     63.59% # Number of instructions fetched each cycle (Total)
system.switch_cpus1.fetch.rateDist::3          308866      3.66%     67.25% # Number of instructions fetched each cycle (Total)
system.switch_cpus1.fetch.rateDist::4          494954      5.86%     73.11% # Number of instructions fetched each cycle (Total)
system.switch_cpus1.fetch.rateDist::5          510803      6.05%     79.15% # Number of instructions fetched each cycle (Total)
system.switch_cpus1.fetch.rateDist::6          123903      1.47%     80.62% # Number of instructions fetched each cycle (Total)
system.switch_cpus1.fetch.rateDist::7           94484      1.12%     81.74% # Number of instructions fetched each cycle (Total)
system.switch_cpus1.fetch.rateDist::8         1542562     18.26%    100.00% # Number of instructions fetched each cycle (Total)
system.switch_cpus1.fetch.rateDist::overflows            0      0.00%    100.00% # Number of instructions fetched each cycle (Total)
system.switch_cpus1.fetch.rateDist::min_value            0                       # Number of instructions fetched each cycle (Total)
system.switch_cpus1.fetch.rateDist::max_value            8                       # Number of instructions fetched each cycle (Total)
system.switch_cpus1.fetch.rateDist::total      8446892                       # Number of instructions fetched each cycle (Total)
system.switch_cpus1.fetch.branchRate         0.365972                       # Number of branch fetches per cycle
system.switch_cpus1.fetch.rate               2.033293                       # Number of inst fetches per cycle
system.switch_cpus1.decode.IdleCycles         3782571                       # Number of cycles decode is idle
system.switch_cpus1.decode.BlockedCycles       405523                       # Number of cycles decode is blocked
system.switch_cpus1.decode.RunCycles          3464661                       # Number of cycles decode is running
system.switch_cpus1.decode.UnblockCycles        14017                       # Number of cycles decode is unblocking
system.switch_cpus1.decode.SquashCycles        780119                       # Number of cycles decode is squashing
system.switch_cpus1.decode.BranchResolved       345936                       # Number of times decode resolved a branch
system.switch_cpus1.decode.BranchMispred          774                       # Number of times decode detected a branch misprediction
system.switch_cpus1.decode.DecodedInsts      19464025                       # Number of instructions handled by decode
system.switch_cpus1.decode.SquashedInsts         1317                       # Number of squashed instructions handled by decode
system.switch_cpus1.rename.SquashCycles        780119                       # Number of cycles rename is squashing
system.switch_cpus1.rename.IdleCycles         3945550                       # Number of cycles rename is idle
system.switch_cpus1.rename.BlockCycles         136642                       # Number of cycles rename is blocking
system.switch_cpus1.rename.serializeStallCycles        47003                       # count of cycles rename stalled for serializing inst
system.switch_cpus1.rename.RunCycles          3314079                       # Number of cycles rename is running
system.switch_cpus1.rename.UnblockCycles       223498                       # Number of cycles rename is unblocking
system.switch_cpus1.rename.RenamedInsts      18937218                       # Number of instructions processed by rename
system.switch_cpus1.rename.ROBFullEvents            3                       # Number of times rename has blocked due to ROB full
system.switch_cpus1.rename.IQFullEvents         76285                       # Number of times rename has blocked due to IQ full
system.switch_cpus1.rename.LSQFullEvents        90003                       # Number of times rename has blocked due to LSQ full
system.switch_cpus1.rename.RenamedOperands     25190235                       # Number of destination operands rename has renamed
system.switch_cpus1.rename.RenameLookups     86246726                       # Number of register rename lookups that rename has made
system.switch_cpus1.rename.int_rename_lookups     86246726                       # Number of integer rename lookups
system.switch_cpus1.rename.CommittedMaps     16318873                       # Number of HB maps that are committed
system.switch_cpus1.rename.UndoneMaps         8871359                       # Number of HB maps that are undone due to squashing
system.switch_cpus1.rename.serializingInsts         2248                       # count of serializing insts renamed
system.switch_cpus1.rename.tempSerializingInsts         1101                       # count of temporary serializing insts renamed
system.switch_cpus1.rename.skidInsts           600579                       # count of insts added to the skid buffer
system.switch_cpus1.memDep0.insertedLoads      2880719                       # Number of loads inserted to the mem dependence unit.
system.switch_cpus1.memDep0.insertedStores       638701                       # Number of stores inserted to the mem dependence unit.
system.switch_cpus1.memDep0.conflictingLoads        10759                       # Number of conflicting loads.
system.switch_cpus1.memDep0.conflictingStores       211295                       # Number of conflicting stores.
system.switch_cpus1.iq.iqInstsAdded          17917438                       # Number of instructions added to the IQ (excludes non-spec)
system.switch_cpus1.iq.iqNonSpecInstsAdded         2201                       # Number of non-speculative instructions added to the IQ
system.switch_cpus1.iq.iqInstsIssued         15084448                       # Number of instructions issued
system.switch_cpus1.iq.iqSquashedInstsIssued        20604                       # Number of squashed instructions issued
system.switch_cpus1.iq.iqSquashedInstsExamined      5424972                       # Number of squashed instructions iterated over during squash; mainly for profiling
system.switch_cpus1.iq.iqSquashedOperandsExamined     14938602                       # Number of squashed operands that are examined and possibly removed from graph
system.switch_cpus1.iq.iqSquashedNonSpecRemoved            1                       # Number of squashed non-spec instructions that were removed
system.switch_cpus1.iq.issued_per_cycle::samples      8446892                       # Number of insts issued each cycle
system.switch_cpus1.iq.issued_per_cycle::mean     1.785799                       # Number of insts issued each cycle
system.switch_cpus1.iq.issued_per_cycle::stdev     1.841892                       # Number of insts issued each cycle
system.switch_cpus1.iq.issued_per_cycle::underflows            0      0.00%      0.00% # Number of insts issued each cycle
system.switch_cpus1.iq.issued_per_cycle::0      2928283     34.67%     34.67% # Number of insts issued each cycle
system.switch_cpus1.iq.issued_per_cycle::1      1581491     18.72%     53.39% # Number of insts issued each cycle
system.switch_cpus1.iq.issued_per_cycle::2      1368009     16.20%     69.59% # Number of insts issued each cycle
system.switch_cpus1.iq.issued_per_cycle::3       840946      9.96%     79.54% # Number of insts issued each cycle
system.switch_cpus1.iq.issued_per_cycle::4       877915     10.39%     89.93% # Number of insts issued each cycle
system.switch_cpus1.iq.issued_per_cycle::5       515002      6.10%     96.03% # Number of insts issued each cycle
system.switch_cpus1.iq.issued_per_cycle::6       231504      2.74%     98.77% # Number of insts issued each cycle
system.switch_cpus1.iq.issued_per_cycle::7        61529      0.73%     99.50% # Number of insts issued each cycle
system.switch_cpus1.iq.issued_per_cycle::8        42213      0.50%    100.00% # Number of insts issued each cycle
system.switch_cpus1.iq.issued_per_cycle::overflows            0      0.00%    100.00% # Number of insts issued each cycle
system.switch_cpus1.iq.issued_per_cycle::min_value            0                       # Number of insts issued each cycle
system.switch_cpus1.iq.issued_per_cycle::max_value            8                       # Number of insts issued each cycle
system.switch_cpus1.iq.issued_per_cycle::total      8446892                       # Number of insts issued each cycle
system.switch_cpus1.iq.fu_full::No_OpClass            0      0.00%      0.00% # attempts to use FU when none available
system.switch_cpus1.iq.fu_full::IntAlu          60160     66.49%     66.49% # attempts to use FU when none available
system.switch_cpus1.iq.fu_full::IntMult             0      0.00%     66.49% # attempts to use FU when none available
system.switch_cpus1.iq.fu_full::IntDiv              0      0.00%     66.49% # attempts to use FU when none available
system.switch_cpus1.iq.fu_full::FloatAdd            0      0.00%     66.49% # attempts to use FU when none available
system.switch_cpus1.iq.fu_full::FloatCmp            0      0.00%     66.49% # attempts to use FU when none available
system.switch_cpus1.iq.fu_full::FloatCvt            0      0.00%     66.49% # attempts to use FU when none available
system.switch_cpus1.iq.fu_full::FloatMult            0      0.00%     66.49% # attempts to use FU when none available
system.switch_cpus1.iq.fu_full::FloatDiv            0      0.00%     66.49% # attempts to use FU when none available
system.switch_cpus1.iq.fu_full::FloatSqrt            0      0.00%     66.49% # attempts to use FU when none available
system.switch_cpus1.iq.fu_full::SimdAdd             0      0.00%     66.49% # attempts to use FU when none available
system.switch_cpus1.iq.fu_full::SimdAddAcc            0      0.00%     66.49% # attempts to use FU when none available
system.switch_cpus1.iq.fu_full::SimdAlu             0      0.00%     66.49% # attempts to use FU when none available
system.switch_cpus1.iq.fu_full::SimdCmp             0      0.00%     66.49% # attempts to use FU when none available
system.switch_cpus1.iq.fu_full::SimdCvt             0      0.00%     66.49% # attempts to use FU when none available
system.switch_cpus1.iq.fu_full::SimdMisc            0      0.00%     66.49% # attempts to use FU when none available
system.switch_cpus1.iq.fu_full::SimdMult            0      0.00%     66.49% # attempts to use FU when none available
system.switch_cpus1.iq.fu_full::SimdMultAcc            0      0.00%     66.49% # attempts to use FU when none available
system.switch_cpus1.iq.fu_full::SimdShift            0      0.00%     66.49% # attempts to use FU when none available
system.switch_cpus1.iq.fu_full::SimdShiftAcc            0      0.00%     66.49% # attempts to use FU when none available
system.switch_cpus1.iq.fu_full::SimdSqrt            0      0.00%     66.49% # attempts to use FU when none available
system.switch_cpus1.iq.fu_full::SimdFloatAdd            0      0.00%     66.49% # attempts to use FU when none available
system.switch_cpus1.iq.fu_full::SimdFloatAlu            0      0.00%     66.49% # attempts to use FU when none available
system.switch_cpus1.iq.fu_full::SimdFloatCmp            0      0.00%     66.49% # attempts to use FU when none available
system.switch_cpus1.iq.fu_full::SimdFloatCvt            0      0.00%     66.49% # attempts to use FU when none available
system.switch_cpus1.iq.fu_full::SimdFloatDiv            0      0.00%     66.49% # attempts to use FU when none available
system.switch_cpus1.iq.fu_full::SimdFloatMisc            0      0.00%     66.49% # attempts to use FU when none available
system.switch_cpus1.iq.fu_full::SimdFloatMult            0      0.00%     66.49% # attempts to use FU when none available
system.switch_cpus1.iq.fu_full::SimdFloatMultAcc            0      0.00%     66.49% # attempts to use FU when none available
system.switch_cpus1.iq.fu_full::SimdFloatSqrt            0      0.00%     66.49% # attempts to use FU when none available
system.switch_cpus1.iq.fu_full::MemRead         19112     21.12%     87.61% # attempts to use FU when none available
system.switch_cpus1.iq.fu_full::MemWrite        11210     12.39%    100.00% # attempts to use FU when none available
system.switch_cpus1.iq.fu_full::IprAccess            0      0.00%    100.00% # attempts to use FU when none available
system.switch_cpus1.iq.fu_full::InstPrefetch            0      0.00%    100.00% # attempts to use FU when none available
system.switch_cpus1.iq.FU_type_0::No_OpClass            0      0.00%      0.00% # Type of FU issued
system.switch_cpus1.iq.FU_type_0::IntAlu     11853425     78.58%     78.58% # Type of FU issued
system.switch_cpus1.iq.FU_type_0::IntMult       120486      0.80%     79.38% # Type of FU issued
system.switch_cpus1.iq.FU_type_0::IntDiv            0      0.00%     79.38% # Type of FU issued
system.switch_cpus1.iq.FU_type_0::FloatAdd            0      0.00%     79.38% # Type of FU issued
system.switch_cpus1.iq.FU_type_0::FloatCmp            0      0.00%     79.38% # Type of FU issued
system.switch_cpus1.iq.FU_type_0::FloatCvt            0      0.00%     79.38% # Type of FU issued
system.switch_cpus1.iq.FU_type_0::FloatMult            0      0.00%     79.38% # Type of FU issued
system.switch_cpus1.iq.FU_type_0::FloatDiv            0      0.00%     79.38% # Type of FU issued
system.switch_cpus1.iq.FU_type_0::FloatSqrt            0      0.00%     79.38% # Type of FU issued
system.switch_cpus1.iq.FU_type_0::SimdAdd            0      0.00%     79.38% # Type of FU issued
system.switch_cpus1.iq.FU_type_0::SimdAddAcc            0      0.00%     79.38% # Type of FU issued
system.switch_cpus1.iq.FU_type_0::SimdAlu            0      0.00%     79.38% # Type of FU issued
system.switch_cpus1.iq.FU_type_0::SimdCmp            0      0.00%     79.38% # Type of FU issued
system.switch_cpus1.iq.FU_type_0::SimdCvt            0      0.00%     79.38% # Type of FU issued
system.switch_cpus1.iq.FU_type_0::SimdMisc            0      0.00%     79.38% # Type of FU issued
system.switch_cpus1.iq.FU_type_0::SimdMult            0      0.00%     79.38% # Type of FU issued
system.switch_cpus1.iq.FU_type_0::SimdMultAcc            0      0.00%     79.38% # Type of FU issued
system.switch_cpus1.iq.FU_type_0::SimdShift            0      0.00%     79.38% # Type of FU issued
system.switch_cpus1.iq.FU_type_0::SimdShiftAcc            0      0.00%     79.38% # Type of FU issued
system.switch_cpus1.iq.FU_type_0::SimdSqrt            0      0.00%     79.38% # Type of FU issued
system.switch_cpus1.iq.FU_type_0::SimdFloatAdd            0      0.00%     79.38% # Type of FU issued
system.switch_cpus1.iq.FU_type_0::SimdFloatAlu            0      0.00%     79.38% # Type of FU issued
system.switch_cpus1.iq.FU_type_0::SimdFloatCmp            0      0.00%     79.38% # Type of FU issued
system.switch_cpus1.iq.FU_type_0::SimdFloatCvt            0      0.00%     79.38% # Type of FU issued
system.switch_cpus1.iq.FU_type_0::SimdFloatDiv            0      0.00%     79.38% # Type of FU issued
system.switch_cpus1.iq.FU_type_0::SimdFloatMisc         1102      0.01%     79.39% # Type of FU issued
system.switch_cpus1.iq.FU_type_0::SimdFloatMult            0      0.00%     79.39% # Type of FU issued
system.switch_cpus1.iq.FU_type_0::SimdFloatMultAcc            0      0.00%     79.39% # Type of FU issued
system.switch_cpus1.iq.FU_type_0::SimdFloatSqrt            0      0.00%     79.39% # Type of FU issued
system.switch_cpus1.iq.FU_type_0::MemRead      2566502     17.01%     96.40% # Type of FU issued
system.switch_cpus1.iq.FU_type_0::MemWrite       542933      3.60%    100.00% # Type of FU issued
system.switch_cpus1.iq.FU_type_0::IprAccess            0      0.00%    100.00% # Type of FU issued
system.switch_cpus1.iq.FU_type_0::InstPrefetch            0      0.00%    100.00% # Type of FU issued
system.switch_cpus1.iq.FU_type_0::total      15084448                       # Type of FU issued
system.switch_cpus1.iq.rate                  1.765451                       # Inst issue rate
system.switch_cpus1.iq.fu_busy_cnt              90482                       # FU busy when requested
system.switch_cpus1.iq.fu_busy_rate          0.005998                       # FU busy rate (busy events/executed inst)
system.switch_cpus1.iq.int_inst_queue_reads     38726874                       # Number of integer instruction queue reads
system.switch_cpus1.iq.int_inst_queue_writes     23344669                       # Number of integer instruction queue writes
system.switch_cpus1.iq.int_inst_queue_wakeup_accesses     14593976                       # Number of integer instruction queue wakeup accesses
system.switch_cpus1.iq.fp_inst_queue_reads            0                       # Number of floating instruction queue reads
system.switch_cpus1.iq.fp_inst_queue_writes            0                       # Number of floating instruction queue writes
system.switch_cpus1.iq.fp_inst_queue_wakeup_accesses            0                       # Number of floating instruction queue wakeup accesses
system.switch_cpus1.iq.int_alu_accesses      15174930                       # Number of integer alu accesses
system.switch_cpus1.iq.fp_alu_accesses              0                       # Number of floating point alu accesses
system.switch_cpus1.iew.lsq.thread0.forwLoads        37168                       # Number of loads that had data forwarded from stores
system.switch_cpus1.iew.lsq.thread0.invAddrLoads            0                       # Number of loads ignored due to an invalid address
system.switch_cpus1.iew.lsq.thread0.squashedLoads       833494                       # Number of loads squashed
system.switch_cpus1.iew.lsq.thread0.ignoredResponses           97                       # Number of memory responses ignored because the instruction is squashed
system.switch_cpus1.iew.lsq.thread0.memOrderViolation           59                       # Number of memory ordering violations
system.switch_cpus1.iew.lsq.thread0.squashedStores       156704                       # Number of stores squashed
system.switch_cpus1.iew.lsq.thread0.invAddrSwpfs            0                       # Number of software prefetches ignored due to an invalid address
system.switch_cpus1.iew.lsq.thread0.blockedLoads            0                       # Number of blocked loads due to partial load-store forwarding
system.switch_cpus1.iew.lsq.thread0.rescheduledLoads            0                       # Number of loads that were rescheduled
system.switch_cpus1.iew.lsq.thread0.cacheBlocked            0                       # Number of times an access to memory failed due to the cache being blocked
system.switch_cpus1.iew.iewIdleCycles               0                       # Number of cycles IEW is idle
system.switch_cpus1.iew.iewSquashCycles        780119                       # Number of cycles IEW is squashing
system.switch_cpus1.iew.iewBlockCycles          72634                       # Number of cycles IEW is blocking
system.switch_cpus1.iew.iewUnblockCycles         6423                       # Number of cycles IEW is unblocking
system.switch_cpus1.iew.iewDispatchedInsts     17919643                       # Number of instructions dispatched to IQ
system.switch_cpus1.iew.iewDispSquashedInsts        21922                       # Number of squashed instructions skipped by dispatch
system.switch_cpus1.iew.iewDispLoadInsts      2880719                       # Number of dispatched load instructions
system.switch_cpus1.iew.iewDispStoreInsts       638701                       # Number of dispatched store instructions
system.switch_cpus1.iew.iewDispNonSpecInsts         1101                       # Number of dispatched non-speculative instructions
system.switch_cpus1.iew.iewIQFullEvents          3365                       # Number of times the IQ has become full, causing a stall
system.switch_cpus1.iew.iewLSQFullEvents           18                       # Number of times the LSQ has become full, causing a stall
system.switch_cpus1.iew.memOrderViolationEvents           59                       # Number of memory order violations
system.switch_cpus1.iew.predictedTakenIncorrect       106112                       # Number of branches that were predicted taken incorrectly
system.switch_cpus1.iew.predictedNotTakenIncorrect       118335                       # Number of branches that were predicted not taken incorrectly
system.switch_cpus1.iew.branchMispredicts       224447                       # Number of branch mispredicts detected at execute
system.switch_cpus1.iew.iewExecutedInsts     14802245                       # Number of executed instructions
system.switch_cpus1.iew.iewExecLoadInsts      2465172                       # Number of load instructions executed
system.switch_cpus1.iew.iewExecSquashedInsts       282203                       # Number of squashed instructions skipped in execute
system.switch_cpus1.iew.exec_swp                    0                       # number of swp insts executed
system.switch_cpus1.iew.exec_nop                    4                       # number of nop insts executed
system.switch_cpus1.iew.exec_refs             2994682                       # number of memory reference insts executed
system.switch_cpus1.iew.exec_branches         2235056                       # Number of branches executed
system.switch_cpus1.iew.exec_stores            529510                       # Number of stores executed
system.switch_cpus1.iew.exec_rate            1.732423                       # Inst execution rate
system.switch_cpus1.iew.wb_sent              14610169                       # cumulative count of insts sent to commit
system.switch_cpus1.iew.wb_count             14593976                       # cumulative count of insts written-back
system.switch_cpus1.iew.wb_producers          8970077                       # num instructions producing a value
system.switch_cpus1.iew.wb_consumers         21998555                       # num instructions consuming a value
system.switch_cpus1.iew.wb_penalized                0                       # number of instrctions required to write to 'other' IQ
system.switch_cpus1.iew.wb_rate              1.708047                       # insts written-back per cycle
system.switch_cpus1.iew.wb_fanout            0.407758                       # average fanout of values written-back
system.switch_cpus1.iew.wb_penalized_rate            0                       # fraction of instructions written-back that wrote to 'other' IQ
system.switch_cpus1.commit.commitCommittedInsts     10918844                       # The number of committed instructions
system.switch_cpus1.commit.commitCommittedOps     12430658                       # The number of committed instructions
system.switch_cpus1.commit.commitSquashedInsts      5489030                       # The number of squashed insts skipped by commit
system.switch_cpus1.commit.commitNonSpecStalls         2200                       # The number of times commit has been forced to stall to communicate backwards
system.switch_cpus1.commit.branchMispredicts       200086                       # The number of times a branch was mispredicted
[...]
system.cpu3.icache.overall_accesses::switch_cpus3.inst      1688673                       # number of overall (read+write) accesses
system.cpu3.icache.overall_accesses::total      1688673                       # number of overall (read+write) accesses
system.cpu3.icache.ReadReq_miss_rate::switch_cpus3.inst     0.000009                       # miss rate for ReadReq accesses
system.cpu3.icache.ReadReq_miss_rate::total     0.000009                       # miss rate for ReadReq accesses
system.cpu3.icache.demand_miss_rate::switch_cpus3.inst     0.000009                       # miss rate for demand accesses
system.cpu3.icache.demand_miss_rate::total     0.000009                       # miss rate for demand accesses
system.cpu3.icache.overall_miss_rate::switch_cpus3.inst     0.000009                       # miss rate for overall accesses
system.cpu3.icache.overall_miss_rate::total     0.000009                       # miss rate for overall accesses
system.cpu3.icache.ReadReq_avg_miss_latency::switch_cpus3.inst        41670                       # average ReadReq miss latency
system.cpu3.icache.ReadReq_avg_miss_latency::total        41670                       # average ReadReq miss latency
system.cpu3.icache.demand_avg_miss_latency::switch_cpus3.inst        41670                       # average overall miss latency
system.cpu3.icache.demand_avg_miss_latency::total        41670                       # average overall miss latency
system.cpu3.icache.overall_avg_miss_latency::switch_cpus3.inst        41670                       # average overall miss latency
system.cpu3.icache.overall_avg_miss_latency::total        41670                       # average overall miss latency
system.cpu3.icache.blocked_cycles::no_mshrs            0                       # number of cycles access was blocked
system.cpu3.icache.blocked_cycles::no_targets            0                       # number of cycles access was blocked
system.cpu3.icache.blocked::no_mshrs                0                       # number of cycles access was blocked
system.cpu3.icache.blocked::no_targets              0                       # number of cycles access was blocked
system.cpu3.icache.avg_blocked_cycles::no_mshrs          nan                       # average number of cycles each access was blocked
system.cpu3.icache.avg_blocked_cycles::no_targets          nan                       # average number of cycles each access was blocked
system.cpu3.icache.fast_writes                      0                       # number of fast writes performed
system.cpu3.icache.cache_copies                     0                       # number of cache copies performed
system.cpu3.icache.ReadReq_mshr_hits::switch_cpus3.inst            3                       # number of ReadReq MSHR hits
system.cpu3.icache.ReadReq_mshr_hits::total            3                       # number of ReadReq MSHR hits
system.cpu3.icache.demand_mshr_hits::switch_cpus3.inst            3                       # number of demand (read+write) MSHR hits
system.cpu3.icache.demand_mshr_hits::total            3                       # number of demand (read+write) MSHR hits
system.cpu3.icache.overall_mshr_hits::switch_cpus3.inst            3                       # number of overall MSHR hits
system.cpu3.icache.overall_mshr_hits::total            3                       # number of overall MSHR hits
system.cpu3.icache.ReadReq_mshr_misses::switch_cpus3.inst           13                       # number of ReadReq MSHR misses
system.cpu3.icache.ReadReq_mshr_misses::total           13                       # number of ReadReq MSHR misses
system.cpu3.icache.demand_mshr_misses::switch_cpus3.inst           13                       # number of demand (read+write) MSHR misses
system.cpu3.icache.demand_mshr_misses::total           13                       # number of demand (read+write) MSHR misses
system.cpu3.icache.overall_mshr_misses::switch_cpus3.inst           13                       # number of overall MSHR misses
system.cpu3.icache.overall_mshr_misses::total           13                       # number of overall MSHR misses
system.cpu3.icache.ReadReq_mshr_miss_latency::switch_cpus3.inst       527579                       # number of ReadReq MSHR miss cycles
system.cpu3.icache.ReadReq_mshr_miss_latency::total       527579                       # number of ReadReq MSHR miss cycles
system.cpu3.icache.demand_mshr_miss_latency::switch_cpus3.inst       527579                       # number of demand (read+write) MSHR miss cycles
system.cpu3.icache.demand_mshr_miss_latency::total       527579                       # number of demand (read+write) MSHR miss cycles
system.cpu3.icache.overall_mshr_miss_latency::switch_cpus3.inst       527579                       # number of overall MSHR miss cycles
system.cpu3.icache.overall_mshr_miss_latency::total       527579                       # number of overall MSHR miss cycles
system.cpu3.icache.ReadReq_mshr_miss_rate::switch_cpus3.inst     0.000008                       # mshr miss rate for ReadReq accesses
system.cpu3.icache.ReadReq_mshr_miss_rate::total     0.000008                       # mshr miss rate for ReadReq accesses
system.cpu3.icache.demand_mshr_miss_rate::switch_cpus3.inst     0.000008                       # mshr miss rate for demand accesses
system.cpu3.icache.demand_mshr_miss_rate::total     0.000008                       # mshr miss rate for demand accesses
system.cpu3.icache.overall_mshr_miss_rate::switch_cpus3.inst     0.000008                       # mshr miss rate for overall accesses
system.cpu3.icache.overall_mshr_miss_rate::total     0.000008                       # mshr miss rate for overall accesses
system.cpu3.icache.ReadReq_avg_mshr_miss_latency::switch_cpus3.inst        40583                       # average ReadReq mshr miss latency
system.cpu3.icache.ReadReq_avg_mshr_miss_latency::total        40583                       # average ReadReq mshr miss latency
system.cpu3.icache.demand_avg_mshr_miss_latency::switch_cpus3.inst        40583                       # average overall mshr miss latency
system.cpu3.icache.demand_avg_mshr_miss_latency::total        40583                       # average overall mshr miss latency
system.cpu3.icache.overall_avg_mshr_miss_latency::switch_cpus3.inst        40583                       # average overall mshr miss latency
system.cpu3.icache.overall_avg_mshr_miss_latency::total        40583                       # average overall mshr miss latency
system.cpu3.icache.no_allocate_misses               0                       # Number of misses that were no-allocate
system.cpu3.dcache.replacements                  5123                       # number of replacements
system.cpu3.dcache.tagsinuse                      256                       # Cycle average of tags in use
system.cpu3.dcache.total_refs               158244221                       # Total number of references to valid blocks.
system.cpu3.dcache.sampled_refs                  5379                       # Sample count of references to valid blocks.
system.cpu3.dcache.avg_refs              29418.892173                       # Average number of references to valid blocks.
system.cpu3.dcache.warmup_cycle                     0                       # Cycle when the warmup percentage was hit.
system.cpu3.dcache.occ_blocks::switch_cpus3.data   226.267950                       # Average occupied blocks per requestor
system.cpu3.dcache.occ_blocks::cpu3.data    29.732050                       # Average occupied blocks per requestor
system.cpu3.dcache.occ_percent::switch_cpus3.data     0.883859                       # Average percentage of cache occupancy
system.cpu3.dcache.occ_percent::cpu3.data     0.116141                       # Average percentage of cache occupancy
system.cpu3.dcache.occ_percent::total               1                       # Average percentage of cache occupancy
system.cpu3.dcache.ReadReq_hits::switch_cpus3.data      1049847                       # number of ReadReq hits
system.cpu3.dcache.ReadReq_hits::total        1049847                       # number of ReadReq hits
system.cpu3.dcache.WriteReq_hits::switch_cpus3.data       721782                       # number of WriteReq hits
system.cpu3.dcache.WriteReq_hits::total        721782                       # number of WriteReq hits
system.cpu3.dcache.LoadLockedReq_hits::switch_cpus3.data         1757                       # number of LoadLockedReq hits
system.cpu3.dcache.LoadLockedReq_hits::total         1757                       # number of LoadLockedReq hits
system.cpu3.dcache.StoreCondReq_hits::switch_cpus3.data         1674                       # number of StoreCondReq hits
system.cpu3.dcache.StoreCondReq_hits::total         1674                       # number of StoreCondReq hits
system.cpu3.dcache.demand_hits::switch_cpus3.data      1771629                       # number of demand (read+write) hits
system.cpu3.dcache.demand_hits::total         1771629                       # number of demand (read+write) hits
system.cpu3.dcache.overall_hits::switch_cpus3.data      1771629                       # number of overall hits
system.cpu3.dcache.overall_hits::total        1771629                       # number of overall hits
system.cpu3.dcache.ReadReq_misses::switch_cpus3.data        13271                       # number of ReadReq misses
system.cpu3.dcache.ReadReq_misses::total        13271                       # number of ReadReq misses
system.cpu3.dcache.WriteReq_misses::switch_cpus3.data          250                       # number of WriteReq misses
system.cpu3.dcache.WriteReq_misses::total          250                       # number of WriteReq misses
system.cpu3.dcache.demand_misses::switch_cpus3.data        13521                       # number of demand (read+write) misses
system.cpu3.dcache.demand_misses::total         13521                       # number of demand (read+write) misses
system.cpu3.dcache.overall_misses::switch_cpus3.data        13521                       # number of overall misses
system.cpu3.dcache.overall_misses::total        13521                       # number of overall misses
system.cpu3.dcache.ReadReq_miss_latency::switch_cpus3.data    443739492                       # number of ReadReq miss cycles
system.cpu3.dcache.ReadReq_miss_latency::total    443739492                       # number of ReadReq miss cycles
system.cpu3.dcache.WriteReq_miss_latency::switch_cpus3.data     11888297                       # number of WriteReq miss cycles
system.cpu3.dcache.WriteReq_miss_latency::total     11888297                       # number of WriteReq miss cycles
system.cpu3.dcache.demand_miss_latency::switch_cpus3.data    455627789                       # number of demand (read+write) miss cycles
system.cpu3.dcache.demand_miss_latency::total    455627789                       # number of demand (read+write) miss cycles
system.cpu3.dcache.overall_miss_latency::switch_cpus3.data    455627789                       # number of overall miss cycles
system.cpu3.dcache.overall_miss_latency::total    455627789                       # number of overall miss cycles
system.cpu3.dcache.ReadReq_accesses::switch_cpus3.data      1063118                       # number of ReadReq accesses(hits+misses)
system.cpu3.dcache.ReadReq_accesses::total      1063118                       # number of ReadReq accesses(hits+misses)
system.cpu3.dcache.WriteReq_accesses::switch_cpus3.data       722032                       # number of WriteReq accesses(hits+misses)
system.cpu3.dcache.WriteReq_accesses::total       722032                       # number of WriteReq accesses(hits+misses)
system.cpu3.dcache.LoadLockedReq_accesses::switch_cpus3.data         1757                       # number of LoadLockedReq accesses(hits+misses)
system.cpu3.dcache.LoadLockedReq_accesses::total         1757                       # number of LoadLockedReq accesses(hits+misses)
system.cpu3.dcache.StoreCondReq_accesses::switch_cpus3.data         1674                       # number of StoreCondReq accesses(hits+misses)
system.cpu3.dcache.StoreCondReq_accesses::total         1674                       # number of StoreCondReq accesses(hits+misses)
system.cpu3.dcache.demand_accesses::switch_cpus3.data      1785150                       # number of demand (read+write) accesses
system.cpu3.dcache.demand_accesses::total      1785150                       # number of demand (read+write) accesses
system.cpu3.dcache.overall_accesses::switch_cpus3.data      1785150                       # number of overall (read+write) accesses
system.cpu3.dcache.overall_accesses::total      1785150                       # number of overall (read+write) accesses
system.cpu3.dcache.ReadReq_miss_rate::switch_cpus3.data     0.012483                       # miss rate for ReadReq accesses
system.cpu3.dcache.ReadReq_miss_rate::total     0.012483                       # miss rate for ReadReq accesses
system.cpu3.dcache.WriteReq_miss_rate::switch_cpus3.data     0.000346                       # miss rate for WriteReq accesses
system.cpu3.dcache.WriteReq_miss_rate::total     0.000346                       # miss rate for WriteReq accesses
system.cpu3.dcache.demand_miss_rate::switch_cpus3.data     0.007574                       # miss rate for demand accesses
system.cpu3.dcache.demand_miss_rate::total     0.007574                       # miss rate for demand accesses
system.cpu3.dcache.overall_miss_rate::switch_cpus3.data     0.007574                       # miss rate for overall accesses
system.cpu3.dcache.overall_miss_rate::total     0.007574                       # miss rate for overall accesses
system.cpu3.dcache.ReadReq_avg_miss_latency::switch_cpus3.data 33436.778841                       # average ReadReq miss latency
system.cpu3.dcache.ReadReq_avg_miss_latency::total 33436.778841                       # average ReadReq miss latency
system.cpu3.dcache.WriteReq_avg_miss_latency::switch_cpus3.data 47553.188000                       # average WriteReq miss latency
system.cpu3.dcache.WriteReq_avg_miss_latency::total 47553.188000                       # average WriteReq miss latency
system.cpu3.dcache.demand_avg_miss_latency::switch_cpus3.data 33697.787812                       # average overall miss latency
system.cpu3.dcache.demand_avg_miss_latency::total 33697.787812                       # average overall miss latency
system.cpu3.dcache.overall_avg_miss_latency::switch_cpus3.data 33697.787812                       # average overall miss latency
system.cpu3.dcache.overall_avg_miss_latency::total 33697.787812                       # average overall miss latency
system.cpu3.dcache.blocked_cycles::no_mshrs            0                       # number of cycles access was blocked
system.cpu3.dcache.blocked_cycles::no_targets        70839                       # number of cycles access was blocked
system.cpu3.dcache.blocked::no_mshrs                0                       # number of cycles access was blocked
system.cpu3.dcache.blocked::no_targets              2                       # number of cycles access was blocked
system.cpu3.dcache.avg_blocked_cycles::no_mshrs          nan                       # average number of cycles each access was blocked
system.cpu3.dcache.avg_blocked_cycles::no_targets 35419.500000                       # average number of cycles each access was blocked
system.cpu3.dcache.fast_writes                      0                       # number of fast writes performed
system.cpu3.dcache.cache_copies                     0                       # number of cache copies performed
system.cpu3.dcache.writebacks::writebacks         2287                       # number of writebacks
system.cpu3.dcache.writebacks::total             2287                       # number of writebacks
system.cpu3.dcache.ReadReq_mshr_hits::switch_cpus3.data         8148                       # number of ReadReq MSHR hits
system.cpu3.dcache.ReadReq_mshr_hits::total         8148                       # number of ReadReq MSHR hits
system.cpu3.dcache.WriteReq_mshr_hits::switch_cpus3.data          250                       # number of WriteReq MSHR hits
system.cpu3.dcache.WriteReq_mshr_hits::total          250                       # number of WriteReq MSHR hits
system.cpu3.dcache.demand_mshr_hits::switch_cpus3.data         8398                       # number of demand (read+write) MSHR hits
system.cpu3.dcache.demand_mshr_hits::total         8398                       # number of demand (read+write) MSHR hits
system.cpu3.dcache.overall_mshr_hits::switch_cpus3.data         8398                       # number of overall MSHR hits
system.cpu3.dcache.overall_mshr_hits::total         8398                       # number of overall MSHR hits
system.cpu3.dcache.ReadReq_mshr_misses::switch_cpus3.data         5123                       # number of ReadReq MSHR misses
system.cpu3.dcache.ReadReq_mshr_misses::total         5123                       # number of ReadReq MSHR misses
system.cpu3.dcache.demand_mshr_misses::switch_cpus3.data         5123                       # number of demand (read+write) MSHR misses
system.cpu3.dcache.demand_mshr_misses::total         5123                       # number of demand (read+write) MSHR misses
system.cpu3.dcache.overall_mshr_misses::switch_cpus3.data         5123                       # number of overall MSHR misses
system.cpu3.dcache.overall_mshr_misses::total         5123                       # number of overall MSHR misses
system.cpu3.dcache.ReadReq_mshr_miss_latency::switch_cpus3.data     86368473                       # number of ReadReq MSHR miss cycles
system.cpu3.dcache.ReadReq_mshr_miss_latency::total     86368473                       # number of ReadReq MSHR miss cycles
system.cpu3.dcache.demand_mshr_miss_latency::switch_cpus3.data     86368473                       # number of demand (read+write) MSHR miss cycles
system.cpu3.dcache.demand_mshr_miss_latency::total     86368473                       # number of demand (read+write) MSHR miss cycles
system.cpu3.dcache.overall_mshr_miss_latency::switch_cpus3.data     86368473                       # number of overall MSHR miss cycles
system.cpu3.dcache.overall_mshr_miss_latency::total     86368473                       # number of overall MSHR miss cycles
system.cpu3.dcache.ReadReq_mshr_miss_rate::switch_cpus3.data     0.004819                       # mshr miss rate for ReadReq accesses
system.cpu3.dcache.ReadReq_mshr_miss_rate::total     0.004819                       # mshr miss rate for ReadReq accesses
system.cpu3.dcache.demand_mshr_miss_rate::switch_cpus3.data     0.002870                       # mshr miss rate for demand accesses
system.cpu3.dcache.demand_mshr_miss_rate::total     0.002870                       # mshr miss rate for demand accesses
system.cpu3.dcache.overall_mshr_miss_rate::switch_cpus3.data     0.002870                       # mshr miss rate for overall accesses
system.cpu3.dcache.overall_mshr_miss_rate::total     0.002870                       # mshr miss rate for overall accesses
system.cpu3.dcache.ReadReq_avg_mshr_miss_latency::switch_cpus3.data 16858.964084                       # average ReadReq mshr miss latency
system.cpu3.dcache.ReadReq_avg_mshr_miss_latency::total 16858.964084                       # average ReadReq mshr miss latency
system.cpu3.dcache.demand_avg_mshr_miss_latency::switch_cpus3.data 16858.964084                       # average overall mshr miss latency
system.cpu3.dcache.demand_avg_mshr_miss_latency::total 16858.964084                       # average overall mshr miss latency
system.cpu3.dcache.overall_avg_mshr_miss_latency::switch_cpus3.data 16858.964084                       # average overall mshr miss latency
system.cpu3.dcache.overall_avg_mshr_miss_latency::total 16858.964084                       # average overall mshr miss latency
system.cpu3.dcache.no_allocate_misses               0                       # Number of misses that were no-allocate

---------- End Simulation Statistics   ----------
