
---------- Begin Simulation Statistics ----------
sim_seconds                                  0.098783                       # Number of seconds simulated
sim_ticks                                 98782959864                       # Number of ticks simulated
final_tick                               626859669366                       # Number of ticks from beginning of simulation (restored from checkpoints and never reset)
sim_freq                                 1000000000000                       # Frequency of simulated ticks
host_inst_rate                                 138659                       # Simulator instruction rate (inst/s)
host_op_rate                                   175127                       # Simulator op (including micro ops) rate (op/s)
host_tick_rate                                6239617                       # Simulator tick rate (ticks/s)
host_mem_usage                               16898524                       # Number of bytes of host memory used
host_seconds                                 15831.57                       # Real time elapsed on the host
sim_insts                                  2195189171                       # Number of instructions simulated
sim_ops                                    2772528406                       # Number of ops (including micro ops) simulated
system.physmem.bytes_read::switch_cpus0.inst         1792                       # Number of bytes read from this memory
system.physmem.bytes_read::switch_cpus0.data       272000                       # Number of bytes read from this memory
system.physmem.bytes_read::switch_cpus1.inst         1664                       # Number of bytes read from this memory
system.physmem.bytes_read::switch_cpus1.data       337920                       # Number of bytes read from this memory
system.physmem.bytes_read::total               613376                       # Number of bytes read from this memory
system.physmem.bytes_inst_read::switch_cpus0.inst         1792                       # Number of instructions bytes read from this memory
system.physmem.bytes_inst_read::switch_cpus1.inst         1664                       # Number of instructions bytes read from this memory
system.physmem.bytes_inst_read::total            3456                       # Number of instructions bytes read from this memory
system.physmem.bytes_written::writebacks       524288                       # Number of bytes written to this memory
system.physmem.bytes_written::total            524288                       # Number of bytes written to this memory
system.physmem.num_reads::switch_cpus0.inst           14                       # Number of read requests responded to by this memory
system.physmem.num_reads::switch_cpus0.data         2125                       # Number of read requests responded to by this memory
system.physmem.num_reads::switch_cpus1.inst           13                       # Number of read requests responded to by this memory
system.physmem.num_reads::switch_cpus1.data         2640                       # Number of read requests responded to by this memory
system.physmem.num_reads::total                  4792                       # Number of read requests responded to by this memory
system.physmem.num_writes::writebacks            4096                       # Number of write requests responded to by this memory
system.physmem.num_writes::functional               0                       # Number of write requests responded to by this memory
system.physmem.num_writes::interrupt                0                       # Number of write requests responded to by this memory
system.physmem.num_writes::switch_cpus0.dtb.walker            0                       # Number of write requests responded to by this memory
system.physmem.num_writes::switch_cpus0.itb.walker            0                       # Number of write requests responded to by this memory
system.physmem.num_writes::switch_cpus0.inst            0                       # Number of write requests responded to by this memory
system.physmem.num_writes::switch_cpus0.data            0                       # Number of write requests responded to by this memory
system.physmem.num_writes::switch_cpus1.dtb.walker            0                       # Number of write requests responded to by this memory
system.physmem.num_writes::switch_cpus1.itb.walker            0                       # Number of write requests responded to by this memory
system.physmem.num_writes::switch_cpus1.inst            0                       # Number of write requests responded to by this memory
system.physmem.num_writes::switch_cpus1.data            0                       # Number of write requests responded to by this memory
system.physmem.num_writes::cpu0.dtb.walker            0                       # Number of write requests responded to by this memory
system.physmem.num_writes::cpu0.itb.walker            0                       # Number of write requests responded to by this memory
system.physmem.num_writes::cpu0.inst                0                       # Number of write requests responded to by this memory
system.physmem.num_writes::cpu0.data                0                       # Number of write requests responded to by this memory
system.physmem.num_writes::cpu1.dtb.walker            0                       # Number of write requests responded to by this memory
system.physmem.num_writes::cpu1.itb.walker            0                       # Number of write requests responded to by this memory
system.physmem.num_writes::cpu1.inst                0                       # Number of write requests responded to by this memory
system.physmem.num_writes::cpu1.data                0                       # Number of write requests responded to by this memory
system.physmem.num_writes::total                 4096                       # Number of write requests responded to by this memory
system.physmem.bw_read::switch_cpus0.inst        18141                       # Total read bandwidth from this memory (bytes/s)
system.physmem.bw_read::switch_cpus0.data      2753511                       # Total read bandwidth from this memory (bytes/s)
system.physmem.bw_read::switch_cpus1.inst        16845                       # Total read bandwidth from this memory (bytes/s)
system.physmem.bw_read::switch_cpus1.data      3420833                       # Total read bandwidth from this memory (bytes/s)
system.physmem.bw_read::total                 6209330                       # Total read bandwidth from this memory (bytes/s)
system.physmem.bw_inst_read::switch_cpus0.inst        18141                       # Instruction read bandwidth from this memory (bytes/s)
system.physmem.bw_inst_read::switch_cpus1.inst        16845                       # Instruction read bandwidth from this memory (bytes/s)
system.physmem.bw_inst_read::total              34986                       # Instruction read bandwidth from this memory (bytes/s)
system.physmem.bw_write::writebacks           5307474                       # Write bandwidth from this memory (bytes/s)
system.physmem.bw_write::total                5307474                       # Write bandwidth from this memory (bytes/s)
system.physmem.bw_total::writebacks           5307474                       # Total bandwidth to/from this memory (bytes/s)
system.physmem.bw_total::switch_cpus0.inst        18141                       # Total bandwidth to/from this memory (bytes/s)
system.physmem.bw_total::switch_cpus0.data      2753511                       # Total bandwidth to/from this memory (bytes/s)
system.physmem.bw_total::switch_cpus1.inst        16845                       # Total bandwidth to/from this memory (bytes/s)
system.physmem.bw_total::switch_cpus1.data      3420833                       # Total bandwidth to/from this memory (bytes/s)
system.physmem.bw_total::total               11516804                       # Total bandwidth to/from this memory (bytes/s)
system.switch_cpus0.dtb.inst_hits                   0                       # ITB inst hits
system.switch_cpus0.dtb.inst_misses                 0                       # ITB inst misses
system.switch_cpus0.dtb.read_hits                   0                       # DTB read hits
system.switch_cpus0.dtb.read_misses                 0                       # DTB read misses
system.switch_cpus0.dtb.write_hits                  0                       # DTB write hits
system.switch_cpus0.dtb.write_misses                0                       # DTB write misses
system.switch_cpus0.dtb.flush_tlb                   0                       # Number of times complete TLB was flushed
system.switch_cpus0.dtb.flush_tlb_mva               0                       # Number of times TLB was flushed by MVA
system.switch_cpus0.dtb.flush_tlb_mva_asid            0                       # Number of times TLB was flushed by MVA & ASID
system.switch_cpus0.dtb.flush_tlb_asid              0                       # Number of times TLB was flushed by ASID
system.switch_cpus0.dtb.flush_entries               0                       # Number of entries that have been flushed from TLB
system.switch_cpus0.dtb.align_faults                0                       # Number of TLB faults due to alignment restrictions
system.switch_cpus0.dtb.prefetch_faults             0                       # Number of TLB faults due to prefetch
system.switch_cpus0.dtb.domain_faults               0                       # Number of TLB faults due to domain restrictions
system.switch_cpus0.dtb.perms_faults                0                       # Number of TLB faults due to permissions restrictions
system.switch_cpus0.dtb.read_accesses               0                       # DTB read accesses
system.switch_cpus0.dtb.write_accesses              0                       # DTB write accesses
system.switch_cpus0.dtb.inst_accesses               0                       # ITB inst accesses
system.switch_cpus0.dtb.hits                        0                       # DTB hits
system.switch_cpus0.dtb.misses                      0                       # DTB misses
system.switch_cpus0.dtb.accesses                    0                       # DTB accesses
system.switch_cpus0.itb.inst_hits                   0                       # ITB inst hits
system.switch_cpus0.itb.inst_misses                 0                       # ITB inst misses
system.switch_cpus0.itb.read_hits                   0                       # DTB read hits
system.switch_cpus0.itb.read_misses                 0                       # DTB read misses
system.switch_cpus0.itb.write_hits                  0                       # DTB write hits
system.switch_cpus0.itb.write_misses                0                       # DTB write misses
system.switch_cpus0.itb.flush_tlb                   0                       # Number of times complete TLB was flushed
system.switch_cpus0.itb.flush_tlb_mva               0                       # Number of times TLB was flushed by MVA
system.switch_cpus0.itb.flush_tlb_mva_asid            0                       # Number of times TLB was flushed by MVA & ASID
system.switch_cpus0.itb.flush_tlb_asid              0                       # Number of times TLB was flushed by ASID
system.switch_cpus0.itb.flush_entries               0                       # Number of entries that have been flushed from TLB
system.switch_cpus0.itb.align_faults                0                       # Number of TLB faults due to alignment restrictions
system.switch_cpus0.itb.prefetch_faults             0                       # Number of TLB faults due to prefetch
system.switch_cpus0.itb.domain_faults               0                       # Number of TLB faults due to domain restrictions
system.switch_cpus0.itb.perms_faults                0                       # Number of TLB faults due to permissions restrictions
system.switch_cpus0.itb.read_accesses               0                       # DTB read accesses
system.switch_cpus0.itb.write_accesses              0                       # DTB write accesses
system.switch_cpus0.itb.inst_accesses               0                       # ITB inst accesses
system.switch_cpus0.itb.hits                        0                       # DTB hits
system.switch_cpus0.itb.misses                      0                       # DTB misses
system.switch_cpus0.itb.accesses                    0                       # DTB accesses
system.cpu0.workload.num_syscalls                   0                       # Number of system calls
system.switch_cpus0.numCycles               236889593                       # number of cpu cycles simulated
system.switch_cpus0.numWorkItemsStarted             0                       # number of work items this cpu started
system.switch_cpus0.numWorkItemsCompleted            0                       # number of work items this cpu completed
system.switch_cpus0.BPredUnit.lookups        21505463                       # Number of BP lookups
system.switch_cpus0.BPredUnit.condPredicted     17433884                       # Number of conditional branches predicted
system.switch_cpus0.BPredUnit.condIncorrect      1977857                       # Number of conditional branches incorrect
system.switch_cpus0.BPredUnit.BTBLookups      8754795                       # Number of BTB lookups
system.switch_cpus0.BPredUnit.BTBHits         8144122                       # Number of BTB hits
system.switch_cpus0.BPredUnit.BTBCorrect            0                       # Number of correct BTB predictions (this stat may not work properly.
system.switch_cpus0.BPredUnit.usedRAS         2334001                       # Number of times the RAS was used to get a target.
system.switch_cpus0.BPredUnit.RASInCorrect        93658                       # Number of incorrect RAS predictions.
system.switch_cpus0.fetch.icacheStallCycles    186291051                       # Number of cycles fetch is stalled on an Icache miss
system.switch_cpus0.fetch.Insts             119899953                       # Number of instructions fetch has processed
system.switch_cpus0.fetch.Branches           21505463                       # Number of branches that fetch encountered
system.switch_cpus0.fetch.predictedBranches     10478123                       # Number of branches that fetch has predicted taken
system.switch_cpus0.fetch.Cycles             26386767                       # Number of cycles fetch has run and was not squashing or blocked
system.switch_cpus0.fetch.SquashCycles        6030508                       # Number of cycles fetch has spent squashing
system.switch_cpus0.fetch.BlockedCycles       3373298                       # Number of cycles fetch has spent blocked
system.switch_cpus0.fetch.MiscStallCycles            1                       # Number of cycles fetch has spent waiting on interrupts, or bad addresses, or out of MSHRs
system.switch_cpus0.fetch.PendingTrapStallCycles           36                       # Number of stall cycles due to pending traps
system.switch_cpus0.fetch.CacheLines         11510108                       # Number of cache lines fetched
system.switch_cpus0.fetch.IcacheSquashes      1976273                       # Number of outstanding Icache misses that were squashed
system.switch_cpus0.fetch.rateDist::samples    220078267                       # Number of instructions fetched each cycle (Total)
system.switch_cpus0.fetch.rateDist::mean     0.669125                       # Number of instructions fetched each cycle (Total)
system.switch_cpus0.fetch.rateDist::stdev     2.029912                       # Number of instructions fetched each cycle (Total)
system.switch_cpus0.fetch.rateDist::underflows            0      0.00%      0.00% # Number of instructions fetched each cycle (Total)
system.switch_cpus0.fetch.rateDist::0       193691500     88.01%     88.01% # Number of instructions fetched each cycle (Total)
system.switch_cpus0.fetch.rateDist::1         1837150      0.83%     88.85% # Number of instructions fetched each cycle (Total)
system.switch_cpus0.fetch.rateDist::2         3335077      1.52%     90.36% # Number of instructions fetched each cycle (Total)
system.switch_cpus0.fetch.rateDist::3         3089720      1.40%     91.76% # Number of instructions fetched each cycle (Total)
system.switch_cpus0.fetch.rateDist::4         1964813      0.89%     92.66% # Number of instructions fetched each cycle (Total)
system.switch_cpus0.fetch.rateDist::5         1617265      0.73%     93.39% # Number of instructions fetched each cycle (Total)
system.switch_cpus0.fetch.rateDist::6          924141      0.42%     93.81% # Number of instructions fetched each cycle (Total)
system.switch_cpus0.fetch.rateDist::7          955726      0.43%     94.25% # Number of instructions fetched each cycle (Total)
system.switch_cpus0.fetch.rateDist::8        12662875      5.75%    100.00% # Number of instructions fetched each cycle (Total)
system.switch_cpus0.fetch.rateDist::overflows            0      0.00%    100.00% # Number of instructions fetched each cycle (Total)
system.switch_cpus0.fetch.rateDist::min_value            0                       # Number of instructions fetched each cycle (Total)
system.switch_cpus0.fetch.rateDist::max_value            8                       # Number of instructions fetched each cycle (Total)
system.switch_cpus0.fetch.rateDist::total    220078267                       # Number of instructions fetched each cycle (Total)
system.switch_cpus0.fetch.branchRate         0.090783                       # Number of branch fetches per cycle
system.switch_cpus0.fetch.rate               0.506143                       # Number of inst fetches per cycle
system.switch_cpus0.decode.IdleCycles       184398474                       # Number of cycles decode is idle
system.switch_cpus0.decode.BlockedCycles      5283056                       # Number of cycles decode is blocked
system.switch_cpus0.decode.RunCycles         26325193                       # Number of cycles decode is running
system.switch_cpus0.decode.UnblockCycles        44655                       # Number of cycles decode is unblocking
system.switch_cpus0.decode.SquashCycles       4026888                       # Number of cycles decode is squashing
system.switch_cpus0.decode.BranchResolved      3734768                       # Number of times decode resolved a branch
system.switch_cpus0.decode.BranchMispred          226                       # Number of times decode detected a branch misprediction
system.switch_cpus0.decode.DecodedInsts     147162240                       # Number of instructions handled by decode
system.switch_cpus0.decode.SquashedInsts         1300                       # Number of squashed instructions handled by decode
system.switch_cpus0.rename.SquashCycles       4026888                       # Number of cycles rename is squashing
system.switch_cpus0.rename.IdleCycles       184870511                       # Number of cycles rename is idle
system.switch_cpus0.rename.BlockCycles        1179674                       # Number of cycles rename is blocking
system.switch_cpus0.rename.serializeStallCycles      3025204                       # count of cycles rename stalled for serializing inst
system.switch_cpus0.rename.RunCycles         25868728                       # Number of cycles rename is running
system.switch_cpus0.rename.UnblockCycles      1107261                       # Number of cycles rename is unblocking
system.switch_cpus0.rename.RenamedInsts     147038693                       # Number of instructions processed by rename
system.switch_cpus0.rename.IQFullEvents        178580                       # Number of times rename has blocked due to IQ full
system.switch_cpus0.rename.LSQFullEvents       479588                       # Number of times rename has blocked due to LSQ full
system.switch_cpus0.rename.RenamedOperands    208575173                       # Number of destination operands rename has renamed
system.switch_cpus0.rename.RenameLookups    684915584                       # Number of register rename lookups that rename has made
system.switch_cpus0.rename.int_rename_lookups    684915584                       # Number of integer rename lookups
system.switch_cpus0.rename.CommittedMaps    171704513                       # Number of HB maps that are committed
system.switch_cpus0.rename.UndoneMaps        36870651                       # Number of HB maps that are undone due to squashing
system.switch_cpus0.rename.serializingInsts        33814                       # count of serializing insts renamed
system.switch_cpus0.rename.tempSerializingInsts        16907                       # count of temporary serializing insts renamed
system.switch_cpus0.rename.skidInsts          4104765                       # count of insts added to the skid buffer
system.switch_cpus0.memDep0.insertedLoads     13862915                       # Number of loads inserted to the mem dependence unit.
system.switch_cpus0.memDep0.insertedStores      7184381                       # Number of stores inserted to the mem dependence unit.
system.switch_cpus0.memDep0.conflictingLoads        82026                       # Number of conflicting loads.
system.switch_cpus0.memDep0.conflictingStores      1600851                       # Number of conflicting stores.
system.switch_cpus0.iq.iqInstsAdded         146072195                       # Number of instructions added to the IQ (excludes non-spec)
system.switch_cpus0.iq.iqNonSpecInstsAdded        33814                       # Number of non-speculative instructions added to the IQ
system.switch_cpus0.iq.iqInstsIssued        137967684                       # Number of instructions issued
system.switch_cpus0.iq.iqSquashedInstsIssued       117560                       # Number of squashed instructions issued
system.switch_cpus0.iq.iqSquashedInstsExamined     22010789                       # Number of squashed instructions iterated over during squash; mainly for profiling
system.switch_cpus0.iq.iqSquashedOperandsExamined     46223852                       # Number of squashed operands that are examined and possibly removed from graph
system.switch_cpus0.iq.issued_per_cycle::samples    220078267                       # Number of insts issued each cycle
system.switch_cpus0.iq.issued_per_cycle::mean     0.626903                       # Number of insts issued each cycle
system.switch_cpus0.iq.issued_per_cycle::stdev     1.299852                       # Number of insts issued each cycle
system.switch_cpus0.iq.issued_per_cycle::underflows            0      0.00%      0.00% # Number of insts issued each cycle
system.switch_cpus0.iq.issued_per_cycle::0    160588545     72.97%     72.97% # Number of insts issued each cycle
system.switch_cpus0.iq.issued_per_cycle::1     25173954     11.44%     84.41% # Number of insts issued each cycle
system.switch_cpus0.iq.issued_per_cycle::2     13550644      6.16%     90.56% # Number of insts issued each cycle
system.switch_cpus0.iq.issued_per_cycle::3      6867434      3.12%     93.69% # Number of insts issued each cycle
system.switch_cpus0.iq.issued_per_cycle::4      8184431      3.72%     97.40% # Number of insts issued each cycle
system.switch_cpus0.iq.issued_per_cycle::5      2648881      1.20%     98.61% # Number of insts issued each cycle
system.switch_cpus0.iq.issued_per_cycle::6      2484163      1.13%     99.74% # Number of insts issued each cycle
system.switch_cpus0.iq.issued_per_cycle::7       438687      0.20%     99.94% # Number of insts issued each cycle
system.switch_cpus0.iq.issued_per_cycle::8       141528      0.06%    100.00% # Number of insts issued each cycle
system.switch_cpus0.iq.issued_per_cycle::overflows            0      0.00%    100.00% # Number of insts issued each cycle
system.switch_cpus0.iq.issued_per_cycle::min_value            0                       # Number of insts issued each cycle
system.switch_cpus0.iq.issued_per_cycle::max_value            8                       # Number of insts issued each cycle
system.switch_cpus0.iq.issued_per_cycle::total    220078267                       # Number of insts issued each cycle
system.switch_cpus0.iq.fu_full::No_OpClass            0      0.00%      0.00% # attempts to use FU when none available
system.switch_cpus0.iq.fu_full::IntAlu         416930     59.73%     59.73% # attempts to use FU when none available
system.switch_cpus0.iq.fu_full::IntMult             0      0.00%     59.73% # attempts to use FU when none available
system.switch_cpus0.iq.fu_full::IntDiv              0      0.00%     59.73% # attempts to use FU when none available
system.switch_cpus0.iq.fu_full::FloatAdd            0      0.00%     59.73% # attempts to use FU when none available
system.switch_cpus0.iq.fu_full::FloatCmp            0      0.00%     59.73% # attempts to use FU when none available
system.switch_cpus0.iq.fu_full::FloatCvt            0      0.00%     59.73% # attempts to use FU when none available
system.switch_cpus0.iq.fu_full::FloatMult            0      0.00%     59.73% # attempts to use FU when none available
system.switch_cpus0.iq.fu_full::FloatDiv            0      0.00%     59.73% # attempts to use FU when none available
system.switch_cpus0.iq.fu_full::FloatSqrt            0      0.00%     59.73% # attempts to use FU when none available
system.switch_cpus0.iq.fu_full::SimdAdd             0      0.00%     59.73% # attempts to use FU when none available
system.switch_cpus0.iq.fu_full::SimdAddAcc            0      0.00%     59.73% # attempts to use FU when none available
system.switch_cpus0.iq.fu_full::SimdAlu             0      0.00%     59.73% # attempts to use FU when none available
system.switch_cpus0.iq.fu_full::SimdCmp             0      0.00%     59.73% # attempts to use FU when none available
system.switch_cpus0.iq.fu_full::SimdCvt             0      0.00%     59.73% # attempts to use FU when none available
system.switch_cpus0.iq.fu_full::SimdMisc            0      0.00%     59.73% # attempts to use FU when none available
system.switch_cpus0.iq.fu_full::SimdMult            0      0.00%     59.73% # attempts to use FU when none available
system.switch_cpus0.iq.fu_full::SimdMultAcc            0      0.00%     59.73% # attempts to use FU when none available
system.switch_cpus0.iq.fu_full::SimdShift            0      0.00%     59.73% # attempts to use FU when none available
system.switch_cpus0.iq.fu_full::SimdShiftAcc            0      0.00%     59.73% # attempts to use FU when none available
system.switch_cpus0.iq.fu_full::SimdSqrt            0      0.00%     59.73% # attempts to use FU when none available
system.switch_cpus0.iq.fu_full::SimdFloatAdd            0      0.00%     59.73% # attempts to use FU when none available
system.switch_cpus0.iq.fu_full::SimdFloatAlu            0      0.00%     59.73% # attempts to use FU when none available
system.switch_cpus0.iq.fu_full::SimdFloatCmp            0      0.00%     59.73% # attempts to use FU when none available
system.switch_cpus0.iq.fu_full::SimdFloatCvt            0      0.00%     59.73% # attempts to use FU when none available
system.switch_cpus0.iq.fu_full::SimdFloatDiv            0      0.00%     59.73% # attempts to use FU when none available
system.switch_cpus0.iq.fu_full::SimdFloatMisc            0      0.00%     59.73% # attempts to use FU when none available
system.switch_cpus0.iq.fu_full::SimdFloatMult            0      0.00%     59.73% # attempts to use FU when none available
system.switch_cpus0.iq.fu_full::SimdFloatMultAcc            0      0.00%     59.73% # attempts to use FU when none available
system.switch_cpus0.iq.fu_full::SimdFloatSqrt            0      0.00%     59.73% # attempts to use FU when none available
system.switch_cpus0.iq.fu_full::MemRead        143290     20.53%     80.26% # attempts to use FU when none available
system.switch_cpus0.iq.fu_full::MemWrite       137807     19.74%    100.00% # attempts to use FU when none available
system.switch_cpus0.iq.fu_full::IprAccess            0      0.00%    100.00% # attempts to use FU when none available
system.switch_cpus0.iq.fu_full::InstPrefetch            0      0.00%    100.00% # attempts to use FU when none available
system.switch_cpus0.iq.FU_type_0::No_OpClass            0      0.00%      0.00% # Type of FU issued
system.switch_cpus0.iq.FU_type_0::IntAlu    116021435     84.09%     84.09% # Type of FU issued
system.switch_cpus0.iq.FU_type_0::IntMult      1978317      1.43%     85.53% # Type of FU issued
system.switch_cpus0.iq.FU_type_0::IntDiv            0      0.00%     85.53% # Type of FU issued
system.switch_cpus0.iq.FU_type_0::FloatAdd            0      0.00%     85.53% # Type of FU issued
system.switch_cpus0.iq.FU_type_0::FloatCmp            0      0.00%     85.53% # Type of FU issued
system.switch_cpus0.iq.FU_type_0::FloatCvt            0      0.00%     85.53% # Type of FU issued
system.switch_cpus0.iq.FU_type_0::FloatMult            0      0.00%     85.53% # Type of FU issued
system.switch_cpus0.iq.FU_type_0::FloatDiv            0      0.00%     85.53% # Type of FU issued
system.switch_cpus0.iq.FU_type_0::FloatSqrt            0      0.00%     85.53% # Type of FU issued
system.switch_cpus0.iq.FU_type_0::SimdAdd            0      0.00%     85.53% # Type of FU issued
system.switch_cpus0.iq.FU_type_0::SimdAddAcc            0      0.00%     85.53% # Type of FU issued
system.switch_cpus0.iq.FU_type_0::SimdAlu            0      0.00%     85.53% # Type of FU issued
system.switch_cpus0.iq.FU_type_0::SimdCmp            0      0.00%     85.53% # Type of FU issued
system.switch_cpus0.iq.FU_type_0::SimdCvt            0      0.00%     85.53% # Type of FU issued
system.switch_cpus0.iq.FU_type_0::SimdMisc            0      0.00%     85.53% # Type of FU issued
system.switch_cpus0.iq.FU_type_0::SimdMult            0      0.00%     85.53% # Type of FU issued
system.switch_cpus0.iq.FU_type_0::SimdMultAcc            0      0.00%     85.53% # Type of FU issued
system.switch_cpus0.iq.FU_type_0::SimdShift            0      0.00%     85.53% # Type of FU issued
system.switch_cpus0.iq.FU_type_0::SimdShiftAcc            0      0.00%     85.53% # Type of FU issued
system.switch_cpus0.iq.FU_type_0::SimdSqrt            0      0.00%     85.53% # Type of FU issued
system.switch_cpus0.iq.FU_type_0::SimdFloatAdd            0      0.00%     85.53% # Type of FU issued
system.switch_cpus0.iq.FU_type_0::SimdFloatAlu            0      0.00%     85.53% # Type of FU issued
system.switch_cpus0.iq.FU_type_0::SimdFloatCmp            0      0.00%     85.53% # Type of FU issued
system.switch_cpus0.iq.FU_type_0::SimdFloatCvt            0      0.00%     85.53% # Type of FU issued
system.switch_cpus0.iq.FU_type_0::SimdFloatDiv            0      0.00%     85.53% # Type of FU issued
system.switch_cpus0.iq.FU_type_0::SimdFloatMisc        16907      0.01%     85.54% # Type of FU issued
system.switch_cpus0.iq.FU_type_0::SimdFloatMult            0      0.00%     85.54% # Type of FU issued
system.switch_cpus0.iq.FU_type_0::SimdFloatMultAcc            0      0.00%     85.54% # Type of FU issued
system.switch_cpus0.iq.FU_type_0::SimdFloatSqrt            0      0.00%     85.54% # Type of FU issued
system.switch_cpus0.iq.FU_type_0::MemRead     12789409      9.27%     94.81% # Type of FU issued
system.switch_cpus0.iq.FU_type_0::MemWrite      7161616      5.19%    100.00% # Type of FU issued
system.switch_cpus0.iq.FU_type_0::IprAccess            0      0.00%    100.00% # Type of FU issued
system.switch_cpus0.iq.FU_type_0::InstPrefetch            0      0.00%    100.00% # Type of FU issued
system.switch_cpus0.iq.FU_type_0::total     137967684                       # Type of FU issued
system.switch_cpus0.iq.rate                  0.582413                       # Inst issue rate
system.switch_cpus0.iq.fu_busy_cnt             698027                       # FU busy when requested
system.switch_cpus0.iq.fu_busy_rate          0.005059                       # FU busy rate (busy events/executed inst)
system.switch_cpus0.iq.int_inst_queue_reads    496829221                       # Number of integer instruction queue reads
system.switch_cpus0.iq.int_inst_queue_writes    168117008                       # Number of integer instruction queue writes
system.switch_cpus0.iq.int_inst_queue_wakeup_accesses    134984698                       # Number of integer instruction queue wakeup accesses
system.switch_cpus0.iq.fp_inst_queue_reads            0                       # Number of floating instruction queue reads
system.switch_cpus0.iq.fp_inst_queue_writes            0                       # Number of floating instruction queue writes
system.switch_cpus0.iq.fp_inst_queue_wakeup_accesses            0                       # Number of floating instruction queue wakeup accesses
system.switch_cpus0.iq.int_alu_accesses     138665711                       # Number of integer alu accesses
system.switch_cpus0.iq.fp_alu_accesses              0                       # Number of floating point alu accesses
system.switch_cpus0.iew.lsq.thread0.forwLoads       268574                       # Number of loads that had data forwarded from stores
system.switch_cpus0.iew.lsq.thread0.invAddrLoads            0                       # Number of loads ignored due to an invalid address
system.switch_cpus0.iew.lsq.thread0.squashedLoads      2669494                       # Number of loads squashed
system.switch_cpus0.iew.lsq.thread0.ignoredResponses            8                       # Number of memory responses ignored because the instruction is squashed
system.switch_cpus0.iew.lsq.thread0.memOrderViolation          210                       # Number of memory ordering violations
system.switch_cpus0.iew.lsq.thread0.squashedStores        93353                       # Number of stores squashed
system.switch_cpus0.iew.lsq.thread0.invAddrSwpfs            0                       # Number of software prefetches ignored due to an invalid address
system.switch_cpus0.iew.lsq.thread0.blockedLoads            0                       # Number of blocked loads due to partial load-store forwarding
system.switch_cpus0.iew.lsq.thread0.rescheduledLoads            0                       # Number of loads that were rescheduled
system.switch_cpus0.iew.lsq.thread0.cacheBlocked            0                       # Number of times an access to memory failed due to the cache being blocked
system.switch_cpus0.iew.iewIdleCycles               0                       # Number of cycles IEW is idle
system.switch_cpus0.iew.iewSquashCycles       4026888                       # Number of cycles IEW is squashing
system.switch_cpus0.iew.iewBlockCycles         799174                       # Number of cycles IEW is blocking
system.switch_cpus0.iew.iewUnblockCycles       113489                       # Number of cycles IEW is unblocking
system.switch_cpus0.iew.iewDispatchedInsts    146106012                       # Number of instructions dispatched to IQ
system.switch_cpus0.iew.iewDispSquashedInsts         8451                       # Number of squashed instructions skipped by dispatch
system.switch_cpus0.iew.iewDispLoadInsts     13862915                       # Number of dispatched load instructions
system.switch_cpus0.iew.iewDispStoreInsts      7184381                       # Number of dispatched store instructions
system.switch_cpus0.iew.iewDispNonSpecInsts        16907                       # Number of dispatched non-speculative instructions
system.switch_cpus0.iew.iewIQFullEvents         99029                       # Number of times the IQ has become full, causing a stall
system.switch_cpus0.iew.iewLSQFullEvents            0                       # Number of times the LSQ has become full, causing a stall
system.switch_cpus0.iew.memOrderViolationEvents          210                       # Number of memory order violations
system.switch_cpus0.iew.predictedTakenIncorrect      1054954                       # Number of branches that were predicted taken incorrectly
system.switch_cpus0.iew.predictedNotTakenIncorrect      1102267                       # Number of branches that were predicted not taken incorrectly
system.switch_cpus0.iew.branchMispredicts      2157221                       # Number of branch mispredicts detected at execute
system.switch_cpus0.iew.iewExecutedInsts    135976983                       # Number of executed instructions
system.switch_cpus0.iew.iewExecLoadInsts     12338608                       # Number of load instructions executed
system.switch_cpus0.iew.iewExecSquashedInsts      1990700                       # Number of squashed instructions skipped in execute
system.switch_cpus0.iew.exec_swp                    0                       # number of swp insts executed
system.switch_cpus0.iew.exec_nop                    3                       # number of nop insts executed
system.switch_cpus0.iew.exec_refs            19500077                       # number of memory reference insts executed
system.switch_cpus0.iew.exec_branches        19196148                       # Number of branches executed
system.switch_cpus0.iew.exec_stores           7161469                       # Number of stores executed
system.switch_cpus0.iew.exec_rate            0.574010                       # Inst execution rate
system.switch_cpus0.iew.wb_sent             134984741                       # cumulative count of insts sent to commit
system.switch_cpus0.iew.wb_count            134984698                       # cumulative count of insts written-back
system.switch_cpus0.iew.wb_producers         77885407                       # num instructions producing a value
system.switch_cpus0.iew.wb_consumers        216946554                       # num instructions consuming a value
system.switch_cpus0.iew.wb_penalized                0                       # number of instrctions required to write to 'other' IQ
system.switch_cpus0.iew.wb_rate              0.569821                       # insts written-back per cycle
system.switch_cpus0.iew.wb_fanout            0.359007                       # average fanout of values written-back
system.switch_cpus0.iew.wb_penalized_rate            0                       # fraction of instructions written-back that wrote to 'other' IQ
system.switch_cpus0.commit.commitCommittedInsts    100000001                       # The number of committed instructions
system.switch_cpus0.commit.commitCommittedOps    123129333                       # The number of committed instructions
system.switch_cpus0.commit.commitSquashedInsts     22977070                       # The number of squashed insts skipped by commit
system.switch_cpus0.commit.commitNonSpecStalls        33814                       # The number of times commit has been forced to stall to communicate backwards
system.switch_cpus0.commit.branchMispredicts      2002991                       # The number of times a branch was mispredicted
system.switch_cpus0.commit.committed_per_cycle::samples    216051379                       # Number of insts commited each cycle
system.switch_cpus0.commit.committed_per_cycle::mean     0.569908                       # Number of insts commited each cycle
system.switch_cpus0.commit.committed_per_cycle::stdev     1.369540                       # Number of insts commited each cycle
system.switch_cpus0.commit.committed_per_cycle::underflows            0      0.00%      0.00% # Number of insts commited each cycle
system.switch_cpus0.commit.committed_per_cycle::0    164196074     76.00%     76.00% # Number of insts commited each cycle
system.switch_cpus0.commit.committed_per_cycle::1     23870714     11.05%     87.05% # Number of insts commited each cycle
system.switch_cpus0.commit.committed_per_cycle::2     12382652      5.73%     92.78% # Number of insts commited each cycle
system.switch_cpus0.commit.committed_per_cycle::3      3980244      1.84%     94.62% # Number of insts commited each cycle
system.switch_cpus0.commit.committed_per_cycle::4      5464927      2.53%     97.15% # Number of insts commited each cycle
system.switch_cpus0.commit.committed_per_cycle::5      1835708      0.85%     98.00% # Number of insts commited each cycle
system.switch_cpus0.commit.committed_per_cycle::6      1058170      0.49%     98.49% # Number of insts commited each cycle
system.switch_cpus0.commit.committed_per_cycle::7       937805      0.43%     98.92% # Number of insts commited each cycle
system.switch_cpus0.commit.committed_per_cycle::8      2325085      1.08%    100.00% # Number of insts commited each cycle
system.switch_cpus0.commit.committed_per_cycle::overflows            0      0.00%    100.00% # Number of insts commited each cycle
system.switch_cpus0.commit.committed_per_cycle::min_value            0                       # Number of insts commited each cycle
system.switch_cpus0.commit.committed_per_cycle::max_value            8                       # Number of insts commited each cycle
system.switch_cpus0.commit.committed_per_cycle::total    216051379                       # Number of insts commited each cycle
system.switch_cpus0.commit.committedInsts    100000001                       # Number of instructions committed
system.switch_cpus0.commit.committedOps     123129333                       # Number of ops (including micro ops) committed
system.switch_cpus0.commit.swp_count                0                       # Number of s/w prefetches committed
system.switch_cpus0.commit.refs              18284449                       # Number of memory references committed
system.switch_cpus0.commit.loads             11193421                       # Number of loads committed
system.switch_cpus0.commit.membars              16907                       # Number of memory barriers committed
system.switch_cpus0.commit.branches          17772297                       # Number of branches committed
system.switch_cpus0.commit.fp_insts                 0                       # Number of committed floating point instructions.
system.switch_cpus0.commit.int_insts        110930175                       # Number of committed integer instructions.
system.switch_cpus0.commit.function_calls      2539549                       # Number of function calls committed.
system.switch_cpus0.commit.bw_lim_events      2325085                       # number cycles where commit BW limit reached
system.switch_cpus0.commit.bw_limited               0                       # number of insts not committed due to BW limits
system.switch_cpus0.rob.rob_reads           359832697                       # The number of ROB reads
system.switch_cpus0.rob.rob_writes          296239725                       # The number of ROB writes
system.switch_cpus0.timesIdled                2879762                       # Number of times that the entire CPU went into an idle state and unscheduled itself
system.switch_cpus0.idleCycles               16811326                       # Total number of cycles that the CPU has spent unscheduled due to idling
system.switch_cpus0.committedInsts          100000001                       # Number of Instructions Simulated
system.switch_cpus0.committedOps            123129333                       # Number of Ops (including micro ops) Simulated
system.switch_cpus0.committedInsts_total    100000001                       # Number of Instructions Simulated
system.switch_cpus0.cpi                      2.368896                       # CPI: Cycles Per Instruction
system.switch_cpus0.cpi_total                2.368896                       # CPI: Total CPI of All Threads
system.switch_cpus0.ipc                      0.422138                       # IPC: Instructions Per Cycle
system.switch_cpus0.ipc_total                0.422138                       # IPC: Total IPC of All Threads
system.switch_cpus0.int_regfile_reads       611589313                       # number of integer regfile reads
system.switch_cpus0.int_regfile_writes      188901886                       # number of integer regfile writes
system.switch_cpus0.misc_regfile_reads      135825493                       # number of misc regfile reads
system.switch_cpus0.misc_regfile_writes         33814                       # number of misc regfile writes
system.switch_cpus1.dtb.inst_hits                   0                       # ITB inst hits
system.switch_cpus1.dtb.inst_misses                 0                       # ITB inst misses
system.switch_cpus1.dtb.read_hits                   0                       # DTB read hits
system.switch_cpus1.dtb.read_misses                 0                       # DTB read misses
system.switch_cpus1.dtb.write_hits                  0                       # DTB write hits
system.switch_cpus1.dtb.write_misses                0                       # DTB write misses
system.switch_cpus1.dtb.flush_tlb                   0                       # Number of times complete TLB was flushed
system.switch_cpus1.dtb.flush_tlb_mva               0                       # Number of times TLB was flushed by MVA
system.switch_cpus1.dtb.flush_tlb_mva_asid            0                       # Number of times TLB was flushed by MVA & ASID
system.switch_cpus1.dtb.flush_tlb_asid              0                       # Number of times TLB was flushed by ASID
system.switch_cpus1.dtb.flush_entries               0                       # Number of entries that have been flushed from TLB
system.switch_cpus1.dtb.align_faults                0                       # Number of TLB faults due to alignment restrictions
system.switch_cpus1.dtb.prefetch_faults             0                       # Number of TLB faults due to prefetch
system.switch_cpus1.dtb.domain_faults               0                       # Number of TLB faults due to domain restrictions
system.switch_cpus1.dtb.perms_faults                0                       # Number of TLB faults due to permissions restrictions
system.switch_cpus1.dtb.read_accesses               0                       # DTB read accesses
system.switch_cpus1.dtb.write_accesses              0                       # DTB write accesses
system.switch_cpus1.dtb.inst_accesses               0                       # ITB inst accesses
system.switch_cpus1.dtb.hits                        0                       # DTB hits
system.switch_cpus1.dtb.misses                      0                       # DTB misses
system.switch_cpus1.dtb.accesses                    0                       # DTB accesses
system.switch_cpus1.itb.inst_hits                   0                       # ITB inst hits
system.switch_cpus1.itb.inst_misses                 0                       # ITB inst misses
system.switch_cpus1.itb.read_hits                   0                       # DTB read hits
system.switch_cpus1.itb.read_misses                 0                       # DTB read misses
system.switch_cpus1.itb.write_hits                  0                       # DTB write hits
system.switch_cpus1.itb.write_misses                0                       # DTB write misses
system.switch_cpus1.itb.flush_tlb                   0                       # Number of times complete TLB was flushed
system.switch_cpus1.itb.flush_tlb_mva               0                       # Number of times TLB was flushed by MVA
system.switch_cpus1.itb.flush_tlb_mva_asid            0                       # Number of times TLB was flushed by MVA & ASID
system.switch_cpus1.itb.flush_tlb_asid              0                       # Number of times TLB was flushed by ASID
system.switch_cpus1.itb.flush_entries               0                       # Number of entries that have been flushed from TLB
system.switch_cpus1.itb.align_faults                0                       # Number of TLB faults due to alignment restrictions
system.switch_cpus1.itb.prefetch_faults             0                       # Number of TLB faults due to prefetch
system.switch_cpus1.itb.domain_faults               0                       # Number of TLB faults due to domain restrictions
system.switch_cpus1.itb.perms_faults                0                       # Number of TLB faults due to permissions restrictions
system.switch_cpus1.itb.read_accesses               0                       # DTB read accesses
system.switch_cpus1.itb.write_accesses              0                       # DTB write accesses
system.switch_cpus1.itb.inst_accesses               0                       # ITB inst accesses
system.switch_cpus1.itb.hits                        0                       # DTB hits
system.switch_cpus1.itb.misses                      0                       # DTB misses
system.switch_cpus1.itb.accesses                    0                       # DTB accesses
system.cpu1.workload.num_syscalls                   0                       # Number of system calls
system.switch_cpus1.numCycles               236889593                       # number of cpu cycles simulated
system.switch_cpus1.numWorkItemsStarted             0                       # number of work items this cpu started
system.switch_cpus1.numWorkItemsCompleted            0                       # number of work items this cpu completed
system.switch_cpus1.BPredUnit.lookups        19630427                       # Number of BP lookups
system.switch_cpus1.BPredUnit.condPredicted     16051085                       # Number of conditional branches predicted
system.switch_cpus1.BPredUnit.condIncorrect      1912280                       # Number of conditional branches incorrect
system.switch_cpus1.BPredUnit.BTBLookups      8013569                       # Number of BTB lookups
system.switch_cpus1.BPredUnit.BTBHits         7698706                       # Number of BTB hits
system.switch_cpus1.BPredUnit.BTBCorrect            0                       # Number of correct BTB predictions (this stat may not work properly.
system.switch_cpus1.BPredUnit.usedRAS         2008957                       # Number of times the RAS was used to get a target.
system.switch_cpus1.BPredUnit.RASInCorrect        86066                       # Number of incorrect RAS predictions.
system.switch_cpus1.fetch.icacheStallCycles    188982501                       # Number of cycles fetch is stalled on an Icache miss
system.switch_cpus1.fetch.Insts             110308269                       # Number of instructions fetch has processed
system.switch_cpus1.fetch.Branches           19630427                       # Number of branches that fetch encountered
system.switch_cpus1.fetch.predictedBranches      9707663                       # Number of branches that fetch has predicted taken
system.switch_cpus1.fetch.Cycles             22972260                       # Number of cycles fetch has run and was not squashing or blocked
system.switch_cpus1.fetch.SquashCycles        5316588                       # Number of cycles fetch has spent squashing
system.switch_cpus1.fetch.BlockedCycles       3611430                       # Number of cycles fetch has spent blocked
system.switch_cpus1.fetch.CacheLines         11578497                       # Number of cache lines fetched
system.switch_cpus1.fetch.IcacheSquashes      1913773                       # Number of outstanding Icache misses that were squashed
system.switch_cpus1.fetch.rateDist::samples    218938841                       # Number of instructions fetched each cycle (Total)
system.switch_cpus1.fetch.rateDist::mean     0.617821                       # Number of instructions fetched each cycle (Total)
system.switch_cpus1.fetch.rateDist::stdev     1.963311                       # Number of instructions fetched each cycle (Total)
system.switch_cpus1.fetch.rateDist::underflows            0      0.00%      0.00% # Number of instructions fetched each cycle (Total)
system.switch_cpus1.fetch.rateDist::0       195966581     89.51%     89.51% # Number of instructions fetched each cycle (Total)
system.switch_cpus1.fetch.rateDist::1         1101485      0.50%     90.01% # Number of instructions fetched each cycle (Total)
system.switch_cpus1.fetch.rateDist::2         1679106      0.77%     90.78% # Number of instructions fetched each cycle (Total)
system.switch_cpus1.fetch.rateDist::3         2295894      1.05%     91.83% # Number of instructions fetched each cycle (Total)
system.switch_cpus1.fetch.rateDist::4         2360932      1.08%     92.90% # Number of instructions fetched each cycle (Total)
system.switch_cpus1.fetch.rateDist::5         1973378      0.90%     93.81% # Number of instructions fetched each cycle (Total)
system.switch_cpus1.fetch.rateDist::6         1117377      0.51%     94.32% # Number of instructions fetched each cycle (Total)
system.switch_cpus1.fetch.rateDist::7         1649888      0.75%     95.07% # Number of instructions fetched each cycle (Total)
system.switch_cpus1.fetch.rateDist::8        10794200      4.93%    100.00% # Number of instructions fetched each cycle (Total)
system.switch_cpus1.fetch.rateDist::overflows            0      0.00%    100.00% # Number of instructions fetched each cycle (Total)
system.switch_cpus1.fetch.rateDist::min_value            0                       # Number of instructions fetched each cycle (Total)
system.switch_cpus1.fetch.rateDist::max_value            8                       # Number of instructions fetched each cycle (Total)
system.switch_cpus1.fetch.rateDist::total    218938841                       # Number of instructions fetched each cycle (Total)
system.switch_cpus1.fetch.branchRate         0.082867                       # Number of branch fetches per cycle
system.switch_cpus1.fetch.rate               0.465653                       # Number of inst fetches per cycle
system.switch_cpus1.decode.IdleCycles       186824107                       # Number of cycles decode is idle
system.switch_cpus1.decode.BlockedCycles      5787630                       # Number of cycles decode is blocked
system.switch_cpus1.decode.RunCycles         22910378                       # Number of cycles decode is running
system.switch_cpus1.decode.UnblockCycles        44304                       # Number of cycles decode is unblocking
system.switch_cpus1.decode.SquashCycles       3372413                       # Number of cycles decode is squashing
system.switch_cpus1.decode.BranchResolved      3238615                       # Number of times decode resolved a branch
system.switch_cpus1.decode.BranchMispred          238                       # Number of times decode detected a branch misprediction
system.switch_cpus1.decode.DecodedInsts     135153939                       # Number of instructions handled by decode
system.switch_cpus1.decode.SquashedInsts         1319                       # Number of squashed instructions handled by decode
system.switch_cpus1.rename.SquashCycles       3372413                       # Number of cycles rename is squashing
system.switch_cpus1.rename.IdleCycles       187354490                       # Number of cycles rename is idle
system.switch_cpus1.rename.BlockCycles        1265904                       # Number of cycles rename is blocking
system.switch_cpus1.rename.serializeStallCycles      3186511                       # count of cycles rename stalled for serializing inst
system.switch_cpus1.rename.RunCycles         22432975                       # Number of cycles rename is running
system.switch_cpus1.rename.UnblockCycles      1326539                       # Number of cycles rename is unblocking
system.switch_cpus1.rename.RenamedInsts     135067825                       # Number of instructions processed by rename
system.switch_cpus1.rename.ROBFullEvents          813                       # Number of times rename has blocked due to ROB full
system.switch_cpus1.rename.IQFullEvents        299772                       # Number of times rename has blocked due to IQ full
system.switch_cpus1.rename.LSQFullEvents       530201                       # Number of times rename has blocked due to LSQ full
system.switch_cpus1.rename.FullRegisterEvents          595                       # Number of times there has been no free registers
system.switch_cpus1.rename.RenamedOperands    187694161                       # Number of destination operands rename has renamed
system.switch_cpus1.rename.RenameLookups    628616583                       # Number of register rename lookups that rename has made
system.switch_cpus1.rename.int_rename_lookups    628616583                       # Number of integer rename lookups
system.switch_cpus1.rename.CommittedMaps    162094510                       # Number of HB maps that are committed
system.switch_cpus1.rename.UndoneMaps        25599651                       # Number of HB maps that are undone due to squashing
system.switch_cpus1.rename.serializingInsts        36923                       # count of serializing insts renamed
system.switch_cpus1.rename.tempSerializingInsts        21099                       # count of temporary serializing insts renamed
system.switch_cpus1.rename.skidInsts          3862884                       # count of insts added to the skid buffer
system.switch_cpus1.memDep0.insertedLoads     12827642                       # Number of loads inserted to the mem dependence unit.
system.switch_cpus1.memDep0.insertedStores      7028892                       # Number of stores inserted to the mem dependence unit.
system.switch_cpus1.memDep0.conflictingLoads       124602                       # Number of conflicting loads.
system.switch_cpus1.memDep0.conflictingStores      1528525                       # Number of conflicting stores.
system.switch_cpus1.iq.iqInstsAdded         134879099                       # Number of instructions added to the IQ (excludes non-spec)
system.switch_cpus1.iq.iqNonSpecInstsAdded        36909                       # Number of non-speculative instructions added to the IQ
system.switch_cpus1.iq.iqInstsIssued        127865441                       # Number of instructions issued
system.switch_cpus1.iq.iqSquashedInstsIssued        25636                       # Number of squashed instructions issued
system.switch_cpus1.iq.iqSquashedInstsExamined     15446959                       # Number of squashed instructions iterated over during squash; mainly for profiling
system.switch_cpus1.iq.iqSquashedOperandsExamined     36767039                       # Number of squashed operands that are examined and possibly removed from graph
system.switch_cpus1.iq.iqSquashedNonSpecRemoved         5261                       # Number of squashed non-spec instructions that were removed
system.switch_cpus1.iq.issued_per_cycle::samples    218938841                       # Number of insts issued each cycle
system.switch_cpus1.iq.issued_per_cycle::mean     0.584024                       # Number of insts issued each cycle
system.switch_cpus1.iq.issued_per_cycle::stdev     1.272850                       # Number of insts issued each cycle
system.switch_cpus1.iq.issued_per_cycle::underflows            0      0.00%      0.00% # Number of insts issued each cycle
system.switch_cpus1.iq.issued_per_cycle::0    164870987     75.30%     75.30% # Number of insts issued each cycle
system.switch_cpus1.iq.issued_per_cycle::1     22040468     10.07%     85.37% # Number of insts issued each cycle
system.switch_cpus1.iq.issued_per_cycle::2     11400668      5.21%     90.58% # Number of insts issued each cycle
system.switch_cpus1.iq.issued_per_cycle::3      8592484      3.92%     94.50% # Number of insts issued each cycle
system.switch_cpus1.iq.issued_per_cycle::4      6678082      3.05%     97.55% # Number of insts issued each cycle
system.switch_cpus1.iq.issued_per_cycle::5      2682777      1.23%     98.78% # Number of insts issued each cycle
system.switch_cpus1.iq.issued_per_cycle::6      1702241      0.78%     99.56% # Number of insts issued each cycle
system.switch_cpus1.iq.issued_per_cycle::7       862546      0.39%     99.95% # Number of insts issued each cycle
system.switch_cpus1.iq.issued_per_cycle::8       108588      0.05%    100.00% # Number of insts issued each cycle
system.switch_cpus1.iq.issued_per_cycle::overflows            0      0.00%    100.00% # Number of insts issued each cycle
system.switch_cpus1.iq.issued_per_cycle::min_value            0                       # Number of insts issued each cycle
system.switch_cpus1.iq.issued_per_cycle::max_value            8                       # Number of insts issued each cycle
system.switch_cpus1.iq.issued_per_cycle::total    218938841                       # Number of insts issued each cycle
system.switch_cpus1.iq.fu_full::No_OpClass            0      0.00%      0.00% # attempts to use FU when none available
system.switch_cpus1.iq.fu_full::IntAlu          22919     10.10%     10.10% # attempts to use FU when none available
system.switch_cpus1.iq.fu_full::IntMult             0      0.00%     10.10% # attempts to use FU when none available
system.switch_cpus1.iq.fu_full::IntDiv              0      0.00%     10.10% # attempts to use FU when none available
system.switch_cpus1.iq.fu_full::FloatAdd            0      0.00%     10.10% # attempts to use FU when none available
system.switch_cpus1.iq.fu_full::FloatCmp            0      0.00%     10.10% # attempts to use FU when none available
system.switch_cpus1.iq.fu_full::FloatCvt            0      0.00%     10.10% # attempts to use FU when none available
system.switch_cpus1.iq.fu_full::FloatMult            0      0.00%     10.10% # attempts to use FU when none available
system.switch_cpus1.iq.fu_full::FloatDiv            0      0.00%     10.10% # attempts to use FU when none available
system.switch_cpus1.iq.fu_full::FloatSqrt            0      0.00%     10.10% # attempts to use FU when none available
system.switch_cpus1.iq.fu_full::SimdAdd             0      0.00%     10.10% # attempts to use FU when none available
system.switch_cpus1.iq.fu_full::SimdAddAcc            0      0.00%     10.10% # attempts to use FU when none available
system.switch_cpus1.iq.fu_full::SimdAlu             0      0.00%     10.10% # attempts to use FU when none available
system.switch_cpus1.iq.fu_full::SimdCmp             0      0.00%     10.10% # attempts to use FU when none available
system.switch_cpus1.iq.fu_full::SimdCvt             0      0.00%     10.10% # attempts to use FU when none available
system.switch_cpus1.iq.fu_full::SimdMisc            0      0.00%     10.10% # attempts to use FU when none available
system.switch_cpus1.iq.fu_full::SimdMult            0      0.00%     10.10% # attempts to use FU when none available
system.switch_cpus1.iq.fu_full::SimdMultAcc            0      0.00%     10.10% # attempts to use FU when none available
system.switch_cpus1.iq.fu_full::SimdShift            0      0.00%     10.10% # attempts to use FU when none available
system.switch_cpus1.iq.fu_full::SimdShiftAcc            0      0.00%     10.10% # attempts to use FU when none available
system.switch_cpus1.iq.fu_full::SimdSqrt            0      0.00%     10.10% # attempts to use FU when none available
system.switch_cpus1.iq.fu_full::SimdFloatAdd            0      0.00%     10.10% # attempts to use FU when none available
system.switch_cpus1.iq.fu_full::SimdFloatAlu            0      0.00%     10.10% # attempts to use FU when none available
system.switch_cpus1.iq.fu_full::SimdFloatCmp            0      0.00%     10.10% # attempts to use FU when none available
system.switch_cpus1.iq.fu_full::SimdFloatCvt            0      0.00%     10.10% # attempts to use FU when none available
system.switch_cpus1.iq.fu_full::SimdFloatDiv            0      0.00%     10.10% # attempts to use FU when none available
system.switch_cpus1.iq.fu_full::SimdFloatMisc            0      0.00%     10.10% # attempts to use FU when none available
system.switch_cpus1.iq.fu_full::SimdFloatMult            0      0.00%     10.10% # attempts to use FU when none available
system.switch_cpus1.iq.fu_full::SimdFloatMultAcc            0      0.00%     10.10% # attempts to use FU when none available
system.switch_cpus1.iq.fu_full::SimdFloatSqrt            0      0.00%     10.10% # attempts to use FU when none available
system.switch_cpus1.iq.fu_full::MemRead         84303     37.14%     47.24% # attempts to use FU when none available
system.switch_cpus1.iq.fu_full::MemWrite       119768     52.76%    100.00% # attempts to use FU when none available
system.switch_cpus1.iq.fu_full::IprAccess            0      0.00%    100.00% # attempts to use FU when none available
system.switch_cpus1.iq.fu_full::InstPrefetch            0      0.00%    100.00% # attempts to use FU when none available
system.switch_cpus1.iq.FU_type_0::No_OpClass            0      0.00%      0.00% # Type of FU issued
system.switch_cpus1.iq.FU_type_0::IntAlu    107128264     83.78%     83.78% # Type of FU issued
system.switch_cpus1.iq.FU_type_0::IntMult      1984034      1.55%     85.33% # Type of FU issued
system.switch_cpus1.iq.FU_type_0::IntDiv            0      0.00%     85.33% # Type of FU issued
system.switch_cpus1.iq.FU_type_0::FloatAdd            0      0.00%     85.33% # Type of FU issued
system.switch_cpus1.iq.FU_type_0::FloatCmp            0      0.00%     85.33% # Type of FU issued
system.switch_cpus1.iq.FU_type_0::FloatCvt            0      0.00%     85.33% # Type of FU issued
system.switch_cpus1.iq.FU_type_0::FloatMult            0      0.00%     85.33% # Type of FU issued
system.switch_cpus1.iq.FU_type_0::FloatDiv            0      0.00%     85.33% # Type of FU issued
system.switch_cpus1.iq.FU_type_0::FloatSqrt            0      0.00%     85.33% # Type of FU issued
system.switch_cpus1.iq.FU_type_0::SimdAdd            0      0.00%     85.33% # Type of FU issued
system.switch_cpus1.iq.FU_type_0::SimdAddAcc            0      0.00%     85.33% # Type of FU issued
system.switch_cpus1.iq.FU_type_0::SimdAlu            0      0.00%     85.33% # Type of FU issued
system.switch_cpus1.iq.FU_type_0::SimdCmp            0      0.00%     85.33% # Type of FU issued
system.switch_cpus1.iq.FU_type_0::SimdCvt            0      0.00%     85.33% # Type of FU issued
system.switch_cpus1.iq.FU_type_0::SimdMisc            0      0.00%     85.33% # Type of FU issued
system.switch_cpus1.iq.FU_type_0::SimdMult            0      0.00%     85.33% # Type of FU issued
system.switch_cpus1.iq.FU_type_0::SimdMultAcc            0      0.00%     85.33% # Type of FU issued
system.switch_cpus1.iq.FU_type_0::SimdShift            0      0.00%     85.33% # Type of FU issued
system.switch_cpus1.iq.FU_type_0::SimdShiftAcc            0      0.00%     85.33% # Type of FU issued
system.switch_cpus1.iq.FU_type_0::SimdSqrt            0      0.00%     85.33% # Type of FU issued
system.switch_cpus1.iq.FU_type_0::SimdFloatAdd            0      0.00%     85.33% # Type of FU issued
system.switch_cpus1.iq.FU_type_0::SimdFloatAlu            0      0.00%     85.33% # Type of FU issued
system.switch_cpus1.iq.FU_type_0::SimdFloatCmp            0      0.00%     85.33% # Type of FU issued
system.switch_cpus1.iq.FU_type_0::SimdFloatCvt            0      0.00%     85.33% # Type of FU issued
system.switch_cpus1.iq.FU_type_0::SimdFloatDiv            0      0.00%     85.33% # Type of FU issued
system.switch_cpus1.iq.FU_type_0::SimdFloatMisc        15824      0.01%     85.35% # Type of FU issued
system.switch_cpus1.iq.FU_type_0::SimdFloatMult            0      0.00%     85.35% # Type of FU issued
system.switch_cpus1.iq.FU_type_0::SimdFloatMultAcc            0      0.00%     85.35% # Type of FU issued
system.switch_cpus1.iq.FU_type_0::SimdFloatSqrt            0      0.00%     85.35% # Type of FU issued
system.switch_cpus1.iq.FU_type_0::MemRead     11762598      9.20%     94.55% # Type of FU issued
system.switch_cpus1.iq.FU_type_0::MemWrite      6974721      5.45%    100.00% # Type of FU issued
system.switch_cpus1.iq.FU_type_0::IprAccess            0      0.00%    100.00% # Type of FU issued
system.switch_cpus1.iq.FU_type_0::InstPrefetch            0      0.00%    100.00% # Type of FU issued
system.switch_cpus1.iq.FU_type_0::total     127865441                       # Type of FU issued
system.switch_cpus1.iq.rate                  0.539768                       # Inst issue rate
system.switch_cpus1.iq.fu_busy_cnt             226990                       # FU busy when requested
system.switch_cpus1.iq.fu_busy_rate          0.001775                       # FU busy rate (busy events/executed inst)
system.switch_cpus1.iq.int_inst_queue_reads    474922349                       # Number of integer instruction queue reads
system.switch_cpus1.iq.int_inst_queue_writes    150363292                       # Number of integer instruction queue writes
system.switch_cpus1.iq.int_inst_queue_wakeup_accesses    125943001                       # Number of integer instruction queue wakeup accesses
system.switch_cpus1.iq.fp_inst_queue_reads            0                       # Number of floating instruction queue reads
system.switch_cpus1.iq.fp_inst_queue_writes            0                       # Number of floating instruction queue writes
system.switch_cpus1.iq.fp_inst_queue_wakeup_accesses            0                       # Number of floating instruction queue wakeup accesses
system.switch_cpus1.iq.int_alu_accesses     128092431                       # Number of integer alu accesses
system.switch_cpus1.iq.fp_alu_accesses              0                       # Number of floating point alu accesses
system.switch_cpus1.iew.lsq.thread0.forwLoads       296684                       # Number of loads that had data forwarded from stores
system.switch_cpus1.iew.lsq.thread0.invAddrLoads            0                       # Number of loads ignored due to an invalid address
system.switch_cpus1.iew.lsq.thread0.squashedLoads      2131248                       # Number of loads squashed
system.switch_cpus1.iew.lsq.thread0.ignoredResponses           32                       # Number of memory responses ignored because the instruction is squashed
system.switch_cpus1.iew.lsq.thread0.memOrderViolation          325                       # Number of memory ordering violations
system.switch_cpus1.iew.lsq.thread0.squashedStores       172869                       # Number of stores squashed
system.switch_cpus1.iew.lsq.thread0.invAddrSwpfs            0                       # Number of software prefetches ignored due to an invalid address
system.switch_cpus1.iew.lsq.thread0.blockedLoads            0                       # Number of blocked loads due to partial load-store forwarding
system.switch_cpus1.iew.lsq.thread0.rescheduledLoads            0                       # Number of loads that were rescheduled
system.switch_cpus1.iew.lsq.thread0.cacheBlocked           62                       # Number of times an access to memory failed due to the cache being blocked
system.switch_cpus1.iew.iewIdleCycles               0                       # Number of cycles IEW is idle
system.switch_cpus1.iew.iewSquashCycles       3372413                       # Number of cycles IEW is squashing
system.switch_cpus1.iew.iewBlockCycles         987719                       # Number of cycles IEW is blocking
system.switch_cpus1.iew.iewUnblockCycles       121785                       # Number of cycles IEW is unblocking
system.switch_cpus1.iew.iewDispatchedInsts    134916008                       # Number of instructions dispatched to IQ
system.switch_cpus1.iew.iewDispSquashedInsts        61746                       # Number of squashed instructions skipped by dispatch
system.switch_cpus1.iew.iewDispLoadInsts     12827642                       # Number of dispatched load instructions
system.switch_cpus1.iew.iewDispStoreInsts      7028892                       # Number of dispatched store instructions
system.switch_cpus1.iew.iewDispNonSpecInsts        21085                       # Number of dispatched non-speculative instructions
system.switch_cpus1.iew.iewIQFullEvents         89876                       # Number of times the IQ has become full, causing a stall
system.switch_cpus1.iew.iewLSQFullEvents            0                       # Number of times the LSQ has become full, causing a stall
system.switch_cpus1.iew.memOrderViolationEvents          325                       # Number of memory order violations
system.switch_cpus1.iew.predictedTakenIncorrect      1111848                       # Number of branches that were predicted taken incorrectly
system.switch_cpus1.iew.predictedNotTakenIncorrect      1091446                       # Number of branches that were predicted not taken incorrectly
system.switch_cpus1.iew.branchMispredicts      2203294                       # Number of branch mispredicts detected at execute
system.switch_cpus1.iew.iewExecutedInsts    126124546                       # Number of executed instructions
system.switch_cpus1.iew.iewExecLoadInsts     11090996                       # Number of load instructions executed
system.switch_cpus1.iew.iewExecSquashedInsts      1740895                       # Number of squashed instructions skipped in execute
system.switch_cpus1.iew.exec_swp                    0                       # number of swp insts executed
system.switch_cpus1.iew.exec_nop                    0                       # number of nop insts executed
system.switch_cpus1.iew.exec_refs            18064005                       # number of memory reference insts executed
system.switch_cpus1.iew.exec_branches        17825816                       # Number of branches executed
system.switch_cpus1.iew.exec_stores           6973009                       # Number of stores executed
system.switch_cpus1.iew.exec_rate            0.532419                       # Inst execution rate
system.switch_cpus1.iew.wb_sent             125943157                       # cumulative count of insts sent to commit
system.switch_cpus1.iew.wb_count            125943001                       # cumulative count of insts written-back
system.switch_cpus1.iew.wb_producers         72504419                       # num instructions producing a value
system.switch_cpus1.iew.wb_consumers        194228371                       # num instructions consuming a value
system.switch_cpus1.iew.wb_penalized                0                       # number of instrctions required to write to 'other' IQ
system.switch_cpus1.iew.wb_rate              0.531653                       # insts written-back per cycle
system.switch_cpus1.iew.wb_fanout            0.373295                       # average fanout of values written-back
system.switch_cpus1.iew.wb_penalized_rate            0                       # fraction of instructions written-back that wrote to 'other' IQ
system.switch_cpus1.commit.commitCommittedInsts     94930456                       # The number of committed instructions
system.switch_cpus1.commit.commitCommittedOps    116673259                       # The number of committed instructions
system.switch_cpus1.commit.commitSquashedInsts     18250221                       # The number of squashed insts skipped by commit
system.switch_cpus1.commit.commitNonSpecStalls        31648                       # The number of times commit has been forced to stall to communicate backwards
system.switch_cpus1.commit.branchMispredicts      1943360                       # The number of times a branch was mispredicted
system.switch_cpus1.commit.committed_per_cycle::samples    215566428                       # Number of insts commited each cycle
system.switch_cpus1.commit.committed_per_cycle::mean     0.541240                       # Number of insts commited each cycle
system.switch_cpus1.commit.committed_per_cycle::stdev     1.391274                       # Number of insts commited each cycle
system.switch_cpus1.commit.committed_per_cycle::underflows            0      0.00%      0.00% # Number of insts commited each cycle
system.switch_cpus1.commit.committed_per_cycle::0    167866331     77.87%     77.87% # Number of insts commited each cycle
system.switch_cpus1.commit.committed_per_cycle::1     23521871     10.91%     88.78% # Number of insts commited each cycle
system.switch_cpus1.commit.committed_per_cycle::2      8937209      4.15%     92.93% # Number of insts commited each cycle
system.switch_cpus1.commit.committed_per_cycle::3      4311158      2.00%     94.93% # Number of insts commited each cycle
system.switch_cpus1.commit.committed_per_cycle::4      3570808      1.66%     96.59% # Number of insts commited each cycle
system.switch_cpus1.commit.committed_per_cycle::5      2131397      0.99%     97.57% # Number of insts commited each cycle
system.switch_cpus1.commit.committed_per_cycle::6      1809216      0.84%     98.41% # Number of insts commited each cycle
system.switch_cpus1.commit.committed_per_cycle::7       799521      0.37%     98.79% # Number of insts commited each cycle
system.switch_cpus1.commit.committed_per_cycle::8      2618917      1.21%    100.00% # Number of insts commited each cycle
system.switch_cpus1.commit.committed_per_cycle::overflows            0      0.00%    100.00% # Number of insts commited each cycle
system.switch_cpus1.commit.committed_per_cycle::min_value            0                       # Number of insts commited each cycle
system.switch_cpus1.commit.committed_per_cycle::max_value            8                       # Number of insts commited each cycle
system.switch_cpus1.commit.committed_per_cycle::total    215566428                       # Number of insts commited each cycle
system.switch_cpus1.commit.committedInsts     94930456                       # Number of instructions committed
system.switch_cpus1.commit.committedOps     116673259                       # Number of ops (including micro ops) committed
system.switch_cpus1.commit.swp_count                0                       # Number of s/w prefetches committed
system.switch_cpus1.commit.refs              17552417                       # Number of memory references committed
system.switch_cpus1.commit.loads             10696394                       # Number of loads committed
system.switch_cpus1.commit.membars              15824                       # Number of memory barriers committed
system.switch_cpus1.commit.branches          16733466                       # Number of branches committed
system.switch_cpus1.commit.fp_insts                 0                       # Number of committed floating point instructions.
system.switch_cpus1.commit.int_insts        105165273                       # Number of committed integer instructions.
system.switch_cpus1.commit.function_calls      2380604                       # Number of function calls committed.
system.switch_cpus1.commit.bw_lim_events      2618917                       # number cycles where commit BW limit reached
system.switch_cpus1.commit.bw_limited               0                       # number of insts not committed due to BW limits
system.switch_cpus1.rob.rob_reads           347870991                       # The number of ROB reads
system.switch_cpus1.rob.rob_writes          273219597                       # The number of ROB writes
system.switch_cpus1.timesIdled                2944516                       # Number of times that the entire CPU went into an idle state and unscheduled itself
system.switch_cpus1.idleCycles               17950752                       # Total number of cycles that the CPU has spent unscheduled due to idling
system.switch_cpus1.committedInsts           94930456                       # Number of Instructions Simulated
system.switch_cpus1.committedOps            116673259                       # Number of Ops (including micro ops) Simulated
system.switch_cpus1.committedInsts_total     94930456                       # Number of Instructions Simulated
system.switch_cpus1.cpi                      2.495401                       # CPI: Cycles Per Instruction
system.switch_cpus1.cpi_total                2.495401                       # CPI: Total CPI of All Threads
system.switch_cpus1.ipc                      0.400737                       # IPC: Instructions Per Cycle
system.switch_cpus1.ipc_total                0.400737                       # IPC: Total IPC of All Threads
system.switch_cpus1.int_regfile_reads       568433127                       # number of integer regfile reads
[...]
system.cpu1.icache.ReadReq_avg_miss_latency::total 152823.875000                       # average ReadReq miss latency
system.cpu1.icache.demand_avg_miss_latency::switch_cpus1.inst 152823.875000                       # average overall miss latency
system.cpu1.icache.demand_avg_miss_latency::total 152823.875000                       # average overall miss latency
system.cpu1.icache.overall_avg_miss_latency::switch_cpus1.inst 152823.875000                       # average overall miss latency
system.cpu1.icache.overall_avg_miss_latency::total 152823.875000                       # average overall miss latency
system.cpu1.icache.blocked_cycles::no_mshrs            0                       # number of cycles access was blocked
system.cpu1.icache.blocked_cycles::no_targets            0                       # number of cycles access was blocked
system.cpu1.icache.blocked::no_mshrs                0                       # number of cycles access was blocked
system.cpu1.icache.blocked::no_targets              0                       # number of cycles access was blocked
system.cpu1.icache.avg_blocked_cycles::no_mshrs          nan                       # average number of cycles each access was blocked
system.cpu1.icache.avg_blocked_cycles::no_targets          nan                       # average number of cycles each access was blocked
system.cpu1.icache.fast_writes                      0                       # number of fast writes performed
system.cpu1.icache.cache_copies                     0                       # number of cache copies performed
system.cpu1.icache.ReadReq_mshr_hits::switch_cpus1.inst            3                       # number of ReadReq MSHR hits
system.cpu1.icache.ReadReq_mshr_hits::total            3                       # number of ReadReq MSHR hits
system.cpu1.icache.demand_mshr_hits::switch_cpus1.inst            3                       # number of demand (read+write) MSHR hits
system.cpu1.icache.demand_mshr_hits::total            3                       # number of demand (read+write) MSHR hits
system.cpu1.icache.overall_mshr_hits::switch_cpus1.inst            3                       # number of overall MSHR hits
system.cpu1.icache.overall_mshr_hits::total            3                       # number of overall MSHR hits
system.cpu1.icache.ReadReq_mshr_misses::switch_cpus1.inst           13                       # number of ReadReq MSHR misses
system.cpu1.icache.ReadReq_mshr_misses::total           13                       # number of ReadReq MSHR misses
system.cpu1.icache.demand_mshr_misses::switch_cpus1.inst           13                       # number of demand (read+write) MSHR misses
system.cpu1.icache.demand_mshr_misses::total           13                       # number of demand (read+write) MSHR misses
system.cpu1.icache.overall_mshr_misses::switch_cpus1.inst           13                       # number of overall MSHR misses
system.cpu1.icache.overall_mshr_misses::total           13                       # number of overall MSHR misses
system.cpu1.icache.ReadReq_mshr_miss_latency::switch_cpus1.inst      2051886                       # number of ReadReq MSHR miss cycles
system.cpu1.icache.ReadReq_mshr_miss_latency::total      2051886                       # number of ReadReq MSHR miss cycles
system.cpu1.icache.demand_mshr_miss_latency::switch_cpus1.inst      2051886                       # number of demand (read+write) MSHR miss cycles
system.cpu1.icache.demand_mshr_miss_latency::total      2051886                       # number of demand (read+write) MSHR miss cycles
system.cpu1.icache.overall_mshr_miss_latency::switch_cpus1.inst      2051886                       # number of overall MSHR miss cycles
system.cpu1.icache.overall_mshr_miss_latency::total      2051886                       # number of overall MSHR miss cycles
system.cpu1.icache.ReadReq_mshr_miss_rate::switch_cpus1.inst     0.000001                       # mshr miss rate for ReadReq accesses
system.cpu1.icache.ReadReq_mshr_miss_rate::total     0.000001                       # mshr miss rate for ReadReq accesses
system.cpu1.icache.demand_mshr_miss_rate::switch_cpus1.inst     0.000001                       # mshr miss rate for demand accesses
system.cpu1.icache.demand_mshr_miss_rate::total     0.000001                       # mshr miss rate for demand accesses
system.cpu1.icache.overall_mshr_miss_rate::switch_cpus1.inst     0.000001                       # mshr miss rate for overall accesses
system.cpu1.icache.overall_mshr_miss_rate::total     0.000001                       # mshr miss rate for overall accesses
system.cpu1.icache.ReadReq_avg_mshr_miss_latency::switch_cpus1.inst 157837.384615                       # average ReadReq mshr miss latency
system.cpu1.icache.ReadReq_avg_mshr_miss_latency::total 157837.384615                       # average ReadReq mshr miss latency
system.cpu1.icache.demand_avg_mshr_miss_latency::switch_cpus1.inst 157837.384615                       # average overall mshr miss latency
system.cpu1.icache.demand_avg_mshr_miss_latency::total 157837.384615                       # average overall mshr miss latency
system.cpu1.icache.overall_avg_mshr_miss_latency::switch_cpus1.inst 157837.384615                       # average overall mshr miss latency
system.cpu1.icache.overall_avg_mshr_miss_latency::total 157837.384615                       # average overall mshr miss latency
system.cpu1.icache.no_allocate_misses               0                       # Number of misses that were no-allocate
system.cpu1.dcache.replacements                 49814                       # number of replacements
system.cpu1.dcache.tagsinuse                      256                       # Cycle average of tags in use
system.cpu1.dcache.total_refs               171084406                       # Total number of references to valid blocks.
system.cpu1.dcache.sampled_refs                 50070                       # Sample count of references to valid blocks.
system.cpu1.dcache.avg_refs               3416.904454                       # Average number of references to valid blocks.
system.cpu1.dcache.warmup_cycle                     0                       # Cycle when the warmup percentage was hit.
system.cpu1.dcache.occ_blocks::switch_cpus1.data   233.252367                       # Average occupied blocks per requestor
system.cpu1.dcache.occ_blocks::cpu1.data    22.747633                       # Average occupied blocks per requestor
system.cpu1.dcache.occ_percent::switch_cpus1.data     0.911142                       # Average percentage of cache occupancy
system.cpu1.dcache.occ_percent::cpu1.data     0.088858                       # Average percentage of cache occupancy
system.cpu1.dcache.occ_percent::total               1                       # Average percentage of cache occupancy
system.cpu1.dcache.ReadReq_hits::switch_cpus1.data      8142819                       # number of ReadReq hits
system.cpu1.dcache.ReadReq_hits::total        8142819                       # number of ReadReq hits
system.cpu1.dcache.WriteReq_hits::switch_cpus1.data      6820666                       # number of WriteReq hits
system.cpu1.dcache.WriteReq_hits::total       6820666                       # number of WriteReq hits
system.cpu1.dcache.LoadLockedReq_hits::switch_cpus1.data        16592                       # number of LoadLockedReq hits
system.cpu1.dcache.LoadLockedReq_hits::total        16592                       # number of LoadLockedReq hits
system.cpu1.dcache.StoreCondReq_hits::switch_cpus1.data        15824                       # number of StoreCondReq hits
system.cpu1.dcache.StoreCondReq_hits::total        15824                       # number of StoreCondReq hits
system.cpu1.dcache.demand_hits::switch_cpus1.data     14963485                       # number of demand (read+write) hits
system.cpu1.dcache.demand_hits::total        14963485                       # number of demand (read+write) hits
system.cpu1.dcache.overall_hits::switch_cpus1.data     14963485                       # number of overall hits
system.cpu1.dcache.overall_hits::total       14963485                       # number of overall hits
system.cpu1.dcache.ReadReq_misses::switch_cpus1.data       140376                       # number of ReadReq misses
system.cpu1.dcache.ReadReq_misses::total       140376                       # number of ReadReq misses
system.cpu1.dcache.WriteReq_misses::switch_cpus1.data         2747                       # number of WriteReq misses
system.cpu1.dcache.WriteReq_misses::total         2747                       # number of WriteReq misses
system.cpu1.dcache.demand_misses::switch_cpus1.data       143123                       # number of demand (read+write) misses
system.cpu1.dcache.demand_misses::total        143123                       # number of demand (read+write) misses
system.cpu1.dcache.overall_misses::switch_cpus1.data       143123                       # number of overall misses
system.cpu1.dcache.overall_misses::total       143123                       # number of overall misses
system.cpu1.dcache.ReadReq_miss_latency::switch_cpus1.data  12016251491                       # number of ReadReq miss cycles
system.cpu1.dcache.ReadReq_miss_latency::total  12016251491                       # number of ReadReq miss cycles
system.cpu1.dcache.WriteReq_miss_latency::switch_cpus1.data    386868263                       # number of WriteReq miss cycles
system.cpu1.dcache.WriteReq_miss_latency::total    386868263                       # number of WriteReq miss cycles
system.cpu1.dcache.demand_miss_latency::switch_cpus1.data  12403119754                       # number of demand (read+write) miss cycles
system.cpu1.dcache.demand_miss_latency::total  12403119754                       # number of demand (read+write) miss cycles
system.cpu1.dcache.overall_miss_latency::switch_cpus1.data  12403119754                       # number of overall miss cycles
system.cpu1.dcache.overall_miss_latency::total  12403119754                       # number of overall miss cycles
system.cpu1.dcache.ReadReq_accesses::switch_cpus1.data      8283195                       # number of ReadReq accesses(hits+misses)
system.cpu1.dcache.ReadReq_accesses::total      8283195                       # number of ReadReq accesses(hits+misses)
system.cpu1.dcache.WriteReq_accesses::switch_cpus1.data      6823413                       # number of WriteReq accesses(hits+misses)
system.cpu1.dcache.WriteReq_accesses::total      6823413                       # number of WriteReq accesses(hits+misses)
system.cpu1.dcache.LoadLockedReq_accesses::switch_cpus1.data        16592                       # number of LoadLockedReq accesses(hits+misses)
system.cpu1.dcache.LoadLockedReq_accesses::total        16592                       # number of LoadLockedReq accesses(hits+misses)
system.cpu1.dcache.StoreCondReq_accesses::switch_cpus1.data        15824                       # number of StoreCondReq accesses(hits+misses)
system.cpu1.dcache.StoreCondReq_accesses::total        15824                       # number of StoreCondReq accesses(hits+misses)
system.cpu1.dcache.demand_accesses::switch_cpus1.data     15106608                       # number of demand (read+write) accesses
system.cpu1.dcache.demand_accesses::total     15106608                       # number of demand (read+write) accesses
system.cpu1.dcache.overall_accesses::switch_cpus1.data     15106608                       # number of overall (read+write) accesses
system.cpu1.dcache.overall_accesses::total     15106608                       # number of overall (read+write) accesses
system.cpu1.dcache.ReadReq_miss_rate::switch_cpus1.data     0.016947                       # miss rate for ReadReq accesses
system.cpu1.dcache.ReadReq_miss_rate::total     0.016947                       # miss rate for ReadReq accesses
system.cpu1.dcache.WriteReq_miss_rate::switch_cpus1.data     0.000403                       # miss rate for WriteReq accesses
system.cpu1.dcache.WriteReq_miss_rate::total     0.000403                       # miss rate for WriteReq accesses
system.cpu1.dcache.demand_miss_rate::switch_cpus1.data     0.009474                       # miss rate for demand accesses
system.cpu1.dcache.demand_miss_rate::total     0.009474                       # miss rate for demand accesses
system.cpu1.dcache.overall_miss_rate::switch_cpus1.data     0.009474                       # miss rate for overall accesses
system.cpu1.dcache.overall_miss_rate::total     0.009474                       # miss rate for overall accesses
system.cpu1.dcache.ReadReq_avg_miss_latency::switch_cpus1.data 85600.469389                       # average ReadReq miss latency
system.cpu1.dcache.ReadReq_avg_miss_latency::total 85600.469389                       # average ReadReq miss latency
system.cpu1.dcache.WriteReq_avg_miss_latency::switch_cpus1.data 140833.004368                       # average WriteReq miss latency
system.cpu1.dcache.WriteReq_avg_miss_latency::total 140833.004368                       # average WriteReq miss latency
system.cpu1.dcache.demand_avg_miss_latency::switch_cpus1.data 86660.562970                       # average overall miss latency
system.cpu1.dcache.demand_avg_miss_latency::total 86660.562970                       # average overall miss latency
system.cpu1.dcache.overall_avg_miss_latency::switch_cpus1.data 86660.562970                       # average overall miss latency
system.cpu1.dcache.overall_avg_miss_latency::total 86660.562970                       # average overall miss latency
system.cpu1.dcache.blocked_cycles::no_mshrs            0                       # number of cycles access was blocked
system.cpu1.dcache.blocked_cycles::no_targets       652978                       # number of cycles access was blocked
system.cpu1.dcache.blocked::no_mshrs                0                       # number of cycles access was blocked
system.cpu1.dcache.blocked::no_targets              7                       # number of cycles access was blocked
system.cpu1.dcache.avg_blocked_cycles::no_mshrs          nan                       # average number of cycles each access was blocked
system.cpu1.dcache.avg_blocked_cycles::no_targets 93282.571429                       # average number of cycles each access was blocked
system.cpu1.dcache.fast_writes                      0                       # number of fast writes performed
system.cpu1.dcache.cache_copies                     0                       # number of cache copies performed
system.cpu1.dcache.writebacks::writebacks        25714                       # number of writebacks
system.cpu1.dcache.writebacks::total            25714                       # number of writebacks
system.cpu1.dcache.ReadReq_mshr_hits::switch_cpus1.data        90566                       # number of ReadReq MSHR hits
system.cpu1.dcache.ReadReq_mshr_hits::total        90566                       # number of ReadReq MSHR hits
system.cpu1.dcache.WriteReq_mshr_hits::switch_cpus1.data         2743                       # number of WriteReq MSHR hits
system.cpu1.dcache.WriteReq_mshr_hits::total         2743                       # number of WriteReq MSHR hits
system.cpu1.dcache.demand_mshr_hits::switch_cpus1.data        93309                       # number of demand (read+write) MSHR hits
system.cpu1.dcache.demand_mshr_hits::total        93309                       # number of demand (read+write) MSHR hits
system.cpu1.dcache.overall_mshr_hits::switch_cpus1.data        93309                       # number of overall MSHR hits
system.cpu1.dcache.overall_mshr_hits::total        93309                       # number of overall MSHR hits
system.cpu1.dcache.ReadReq_mshr_misses::switch_cpus1.data        49810                       # number of ReadReq MSHR misses
system.cpu1.dcache.ReadReq_mshr_misses::total        49810                       # number of ReadReq MSHR misses
system.cpu1.dcache.WriteReq_mshr_misses::switch_cpus1.data            4                       # number of WriteReq MSHR misses
system.cpu1.dcache.WriteReq_mshr_misses::total            4                       # number of WriteReq MSHR misses
system.cpu1.dcache.demand_mshr_misses::switch_cpus1.data        49814                       # number of demand (read+write) MSHR misses
system.cpu1.dcache.demand_mshr_misses::total        49814                       # number of demand (read+write) MSHR misses
system.cpu1.dcache.overall_mshr_misses::switch_cpus1.data        49814                       # number of overall MSHR misses
system.cpu1.dcache.overall_mshr_misses::total        49814                       # number of overall MSHR misses
system.cpu1.dcache.ReadReq_mshr_miss_latency::switch_cpus1.data   3550990257                       # number of ReadReq MSHR miss cycles
system.cpu1.dcache.ReadReq_mshr_miss_latency::total   3550990257                       # number of ReadReq MSHR miss cycles
system.cpu1.dcache.WriteReq_mshr_miss_latency::switch_cpus1.data       663164                       # number of WriteReq MSHR miss cycles
system.cpu1.dcache.WriteReq_mshr_miss_latency::total       663164                       # number of WriteReq MSHR miss cycles
system.cpu1.dcache.demand_mshr_miss_latency::switch_cpus1.data   3551653421                       # number of demand (read+write) MSHR miss cycles
system.cpu1.dcache.demand_mshr_miss_latency::total   3551653421                       # number of demand (read+write) MSHR miss cycles
system.cpu1.dcache.overall_mshr_miss_latency::switch_cpus1.data   3551653421                       # number of overall MSHR miss cycles
system.cpu1.dcache.overall_mshr_miss_latency::total   3551653421                       # number of overall MSHR miss cycles
system.cpu1.dcache.ReadReq_mshr_miss_rate::switch_cpus1.data     0.006013                       # mshr miss rate for ReadReq accesses
system.cpu1.dcache.ReadReq_mshr_miss_rate::total     0.006013                       # mshr miss rate for ReadReq accesses
system.cpu1.dcache.WriteReq_mshr_miss_rate::switch_cpus1.data     0.000001                       # mshr miss rate for WriteReq accesses
system.cpu1.dcache.WriteReq_mshr_miss_rate::total     0.000001                       # mshr miss rate for WriteReq accesses
system.cpu1.dcache.demand_mshr_miss_rate::switch_cpus1.data     0.003297                       # mshr miss rate for demand accesses
system.cpu1.dcache.demand_mshr_miss_rate::total     0.003297                       # mshr miss rate for demand accesses
system.cpu1.dcache.overall_mshr_miss_rate::switch_cpus1.data     0.003297                       # mshr miss rate for overall accesses
system.cpu1.dcache.overall_mshr_miss_rate::total     0.003297                       # mshr miss rate for overall accesses
system.cpu1.dcache.ReadReq_avg_mshr_miss_latency::switch_cpus1.data 71290.709837                       # average ReadReq mshr miss latency
system.cpu1.dcache.ReadReq_avg_mshr_miss_latency::total 71290.709837                       # average ReadReq mshr miss latency
system.cpu1.dcache.WriteReq_avg_mshr_miss_latency::switch_cpus1.data       165791                       # average WriteReq mshr miss latency
system.cpu1.dcache.WriteReq_avg_mshr_miss_latency::total       165791                       # average WriteReq mshr miss latency
system.cpu1.dcache.demand_avg_mshr_miss_latency::switch_cpus1.data 71298.298089                       # average overall mshr miss latency
system.cpu1.dcache.demand_avg_mshr_miss_latency::total 71298.298089                       # average overall mshr miss latency
system.cpu1.dcache.overall_avg_mshr_miss_latency::switch_cpus1.data 71298.298089                       # average overall mshr miss latency
system.cpu1.dcache.overall_avg_mshr_miss_latency::total 71298.298089                       # average overall mshr miss latency
system.cpu1.dcache.no_allocate_misses               0                       # Number of misses that were no-allocate

---------- End Simulation Statistics   ----------
