
---------- Begin Simulation Statistics ----------
sim_seconds                                  0.125395                       # Number of seconds simulated
sim_ticks                                125395168528                       # Number of ticks simulated
final_tick                               1267030504159                       # Number of ticks from beginning of simulation (restored from checkpoints and never reset)
sim_freq                                 1000000000000                       # Frequency of simulated ticks
host_inst_rate                                  93826                       # Simulator instruction rate (inst/s)
host_op_rate                                   120705                       # Simulator op (including micro ops) rate (op/s)
host_tick_rate                                3372272                       # Simulator tick rate (ticks/s)
host_mem_usage                               16908616                       # Number of bytes of host memory used
host_seconds                                 37184.18                       # Real time elapsed on the host
sim_insts                                  3488833691                       # Number of instructions simulated
sim_ops                                    4488307419                       # Number of ops (including micro ops) simulated
system.physmem.bytes_read::switch_cpus0.inst         1792                       # Number of bytes read from this memory
system.physmem.bytes_read::switch_cpus0.data      1658752                       # Number of bytes read from this memory
system.physmem.bytes_read::switch_cpus1.inst         2432                       # Number of bytes read from this memory
system.physmem.bytes_read::switch_cpus1.data       681600                       # Number of bytes read from this memory
system.physmem.bytes_read::switch_cpus2.inst         1664                       # Number of bytes read from this memory
system.physmem.bytes_read::switch_cpus2.data      2147840                       # Number of bytes read from this memory
system.physmem.bytes_read::total              4494080                       # Number of bytes read from this memory
system.physmem.bytes_inst_read::switch_cpus0.inst         1792                       # Number of instructions bytes read from this memory
system.physmem.bytes_inst_read::switch_cpus1.inst         2432                       # Number of instructions bytes read from this memory
system.physmem.bytes_inst_read::switch_cpus2.inst         1664                       # Number of instructions bytes read from this memory
system.physmem.bytes_inst_read::total            5888                       # Number of instructions bytes read from this memory
system.physmem.bytes_written::writebacks      1144704                       # Number of bytes written to this memory
system.physmem.bytes_written::total           1144704                       # Number of bytes written to this memory
system.physmem.num_reads::switch_cpus0.inst           14                       # Number of read requests responded to by this memory
system.physmem.num_reads::switch_cpus0.data        12959                       # Number of read requests responded to by this memory
system.physmem.num_reads::switch_cpus1.inst           19                       # Number of read requests responded to by this memory
system.physmem.num_reads::switch_cpus1.data         5325                       # Number of read requests responded to by this memory
system.physmem.num_reads::switch_cpus2.inst           13                       # Number of read requests responded to by this memory
system.physmem.num_reads::switch_cpus2.data        16780                       # Number of read requests responded to by this memory
system.physmem.num_reads::total                 35110                       # Number of read requests responded to by this memory
system.physmem.num_writes::writebacks            8943                       # Number of write requests responded to by this memory
system.physmem.num_writes::functional               0                       # Number of write requests responded to by this memory
system.physmem.num_writes::interrupt                0                       # Number of write requests responded to by this memory
system.physmem.num_writes::switch_cpus0.dtb.walker            0                       # Number of write requests responded to by this memory
system.physmem.num_writes::switch_cpus0.itb.walker            0                       # Number of write requests responded to by this memory
system.physmem.num_writes::switch_cpus0.inst            0                       # Number of write requests responded to by this memory
system.physmem.num_writes::switch_cpus0.data            0                       # Number of write requests responded to by this memory
system.physmem.num_writes::switch_cpus1.dtb.walker            0                       # Number of write requests responded to by this memory
system.physmem.num_writes::switch_cpus1.itb.walker            0                       # Number of write requests responded to by this memory
system.physmem.num_writes::switch_cpus1.inst            0                       # Number of write requests responded to by this memory
system.physmem.num_writes::switch_cpus1.data            0                       # Number of write requests responded to by this memory
system.physmem.num_writes::switch_cpus2.dtb.walker            0                       # Number of write requests responded to by this memory
system.physmem.num_writes::switch_cpus2.itb.walker            0                       # Number of write requests responded to by this memory
system.physmem.num_writes::switch_cpus2.inst            0                       # Number of write requests responded to by this memory
system.physmem.num_writes::switch_cpus2.data            0                       # Number of write requests responded to by this memory
system.physmem.num_writes::cpu0.dtb.walker            0                       # Number of write requests responded to by this memory
system.physmem.num_writes::cpu0.itb.walker            0                       # Number of write requests responded to by this memory
system.physmem.num_writes::cpu0.inst                0                       # Number of write requests responded to by this memory
system.physmem.num_writes::cpu0.data                0                       # Number of write requests responded to by this memory
system.physmem.num_writes::cpu1.dtb.walker            0                       # Number of write requests responded to by this memory
system.physmem.num_writes::cpu1.itb.walker            0                       # Number of write requests responded to by this memory
system.physmem.num_writes::cpu1.inst                0                       # Number of write requests responded to by this memory
system.physmem.num_writes::cpu1.data                0                       # Number of write requests responded to by this memory
system.physmem.num_writes::cpu2.dtb.walker            0                       # Number of write requests responded to by this memory
system.physmem.num_writes::cpu2.itb.walker            0                       # Number of write requests responded to by this memory
system.physmem.num_writes::cpu2.inst                0                       # Number of write requests responded to by this memory
system.physmem.num_writes::cpu2.data                0                       # Number of write requests responded to by this memory
system.physmem.num_writes::total                 8943                       # Number of write requests responded to by this memory
system.physmem.bw_read::switch_cpus0.inst        14291                       # Total read bandwidth from this memory (bytes/s)
system.physmem.bw_read::switch_cpus0.data     13228197                       # Total read bandwidth from this memory (bytes/s)
system.physmem.bw_read::switch_cpus1.inst        19395                       # Total read bandwidth from this memory (bytes/s)
system.physmem.bw_read::switch_cpus1.data      5435616                       # Total read bandwidth from this memory (bytes/s)
system.physmem.bw_read::switch_cpus2.inst        13270                       # Total read bandwidth from this memory (bytes/s)
system.physmem.bw_read::switch_cpus2.data     17128571                       # Total read bandwidth from this memory (bytes/s)
system.physmem.bw_read::total                35839339                       # Total read bandwidth from this memory (bytes/s)
system.physmem.bw_inst_read::switch_cpus0.inst        14291                       # Instruction read bandwidth from this memory (bytes/s)
system.physmem.bw_inst_read::switch_cpus1.inst        19395                       # Instruction read bandwidth from this memory (bytes/s)
system.physmem.bw_inst_read::switch_cpus2.inst        13270                       # Instruction read bandwidth from this memory (bytes/s)
system.physmem.bw_inst_read::total              46956                       # Instruction read bandwidth from this memory (bytes/s)
system.physmem.bw_write::writebacks           9128773                       # Write bandwidth from this memory (bytes/s)
system.physmem.bw_write::total                9128773                       # Write bandwidth from this memory (bytes/s)
system.physmem.bw_total::writebacks           9128773                       # Total bandwidth to/from this memory (bytes/s)
system.physmem.bw_total::switch_cpus0.inst        14291                       # Total bandwidth to/from this memory (bytes/s)
system.physmem.bw_total::switch_cpus0.data     13228197                       # Total bandwidth to/from this memory (bytes/s)
system.physmem.bw_total::switch_cpus1.inst        19395                       # Total bandwidth to/from this memory (bytes/s)
system.physmem.bw_total::switch_cpus1.data      5435616                       # Total bandwidth to/from this memory (bytes/s)
system.physmem.bw_total::switch_cpus2.inst        13270                       # Total bandwidth to/from this memory (bytes/s)
system.physmem.bw_total::switch_cpus2.data     17128571                       # Total bandwidth to/from this memory (bytes/s)
system.physmem.bw_total::total               44968112                       # Total bandwidth to/from this memory (bytes/s)
system.switch_cpus0.dtb.inst_hits                   0                       # ITB inst hits
system.switch_cpus0.dtb.inst_misses                 0                       # ITB inst misses
system.switch_cpus0.dtb.read_hits                   0                       # DTB read hits
system.switch_cpus0.dtb.read_misses                 0                       # DTB read misses
system.switch_cpus0.dtb.write_hits                  0                       # DTB write hits
system.switch_cpus0.dtb.write_misses                0                       # DTB write misses
system.switch_cpus0.dtb.flush_tlb                   0                       # Number of times complete TLB was flushed
system.switch_cpus0.dtb.flush_tlb_mva               0                       # Number of times TLB was flushed by MVA
system.switch_cpus0.dtb.flush_tlb_mva_asid            0                       # Number of times TLB was flushed by MVA & ASID
system.switch_cpus0.dtb.flush_tlb_asid              0                       # Number of times TLB was flushed by ASID
system.switch_cpus0.dtb.flush_entries               0                       # Number of entries that have been flushed from TLB
system.switch_cpus0.dtb.align_faults                0                       # Number of TLB faults due to alignment restrictions
system.switch_cpus0.dtb.prefetch_faults             0                       # Number of TLB faults due to prefetch
system.switch_cpus0.dtb.domain_faults               0                       # Number of TLB faults due to domain restrictions
system.switch_cpus0.dtb.perms_faults                0                       # Number of TLB faults due to permissions restrictions
system.switch_cpus0.dtb.read_accesses               0                       # DTB read accesses
system.switch_cpus0.dtb.write_accesses              0                       # DTB write accesses
system.switch_cpus0.dtb.inst_accesses               0                       # ITB inst accesses
system.switch_cpus0.dtb.hits                        0                       # DTB hits
system.switch_cpus0.dtb.misses                      0                       # DTB misses
system.switch_cpus0.dtb.accesses                    0                       # DTB accesses
system.switch_cpus0.itb.inst_hits                   0                       # ITB inst hits
system.switch_cpus0.itb.inst_misses                 0                       # ITB inst misses
system.switch_cpus0.itb.read_hits                   0                       # DTB read hits
system.switch_cpus0.itb.read_misses                 0                       # DTB read misses
system.switch_cpus0.itb.write_hits                  0                       # DTB write hits
system.switch_cpus0.itb.write_misses                0                       # DTB write misses
system.switch_cpus0.itb.flush_tlb                   0                       # Number of times complete TLB was flushed
system.switch_cpus0.itb.flush_tlb_mva               0                       # Number of times TLB was flushed by MVA
system.switch_cpus0.itb.flush_tlb_mva_asid            0                       # Number of times TLB was flushed by MVA & ASID
system.switch_cpus0.itb.flush_tlb_asid              0                       # Number of times TLB was flushed by ASID
system.switch_cpus0.itb.flush_entries               0                       # Number of entries that have been flushed from TLB
system.switch_cpus0.itb.align_faults                0                       # Number of TLB faults due to alignment restrictions
system.switch_cpus0.itb.prefetch_faults             0                       # Number of TLB faults due to prefetch
system.switch_cpus0.itb.domain_faults               0                       # Number of TLB faults due to domain restrictions
system.switch_cpus0.itb.perms_faults                0                       # Number of TLB faults due to permissions restrictions
system.switch_cpus0.itb.read_accesses               0                       # DTB read accesses
system.switch_cpus0.itb.write_accesses              0                       # DTB write accesses
system.switch_cpus0.itb.inst_accesses               0                       # ITB inst accesses
system.switch_cpus0.itb.hits                        0                       # DTB hits
system.switch_cpus0.itb.misses                      0                       # DTB misses
system.switch_cpus0.itb.accesses                    0                       # DTB accesses
system.cpu0.workload.num_syscalls                   0                       # Number of system calls
system.switch_cpus0.numCycles               150534417                       # number of cpu cycles simulated
system.switch_cpus0.numWorkItemsStarted             0                       # number of work items this cpu started
system.switch_cpus0.numWorkItemsCompleted            0                       # number of work items this cpu completed
system.switch_cpus0.BPredUnit.lookups        22320678                       # Number of BP lookups
system.switch_cpus0.BPredUnit.condPredicted     19559787                       # Number of conditional branches predicted
system.switch_cpus0.BPredUnit.condIncorrect      1741543                       # Number of conditional branches incorrect
system.switch_cpus0.BPredUnit.BTBLookups     11034117                       # Number of BTB lookups
system.switch_cpus0.BPredUnit.BTBHits        10772486                       # Number of BTB hits
system.switch_cpus0.BPredUnit.BTBCorrect            0                       # Number of correct BTB predictions (this stat may not work properly.
system.switch_cpus0.BPredUnit.usedRAS         1553756                       # Number of times the RAS was used to get a target.
system.switch_cpus0.BPredUnit.RASInCorrect        54147                       # Number of incorrect RAS predictions.
system.switch_cpus0.fetch.icacheStallCycles    117665702                       # Number of cycles fetch is stalled on an Icache miss
system.switch_cpus0.fetch.Insts             124044900                       # Number of instructions fetch has processed
system.switch_cpus0.fetch.Branches           22320678                       # Number of branches that fetch encountered
system.switch_cpus0.fetch.predictedBranches     12326242                       # Number of branches that fetch has predicted taken
system.switch_cpus0.fetch.Cycles             25244696                       # Number of cycles fetch has run and was not squashing or blocked
system.switch_cpus0.fetch.SquashCycles        5703328                       # Number of cycles fetch has spent squashing
system.switch_cpus0.fetch.BlockedCycles       1934758                       # Number of cycles fetch has spent blocked
system.switch_cpus0.fetch.CacheLines         13411507                       # Number of cache lines fetched
system.switch_cpus0.fetch.IcacheSquashes      1095810                       # Number of outstanding Icache misses that were squashed
system.switch_cpus0.fetch.rateDist::samples    148796765                       # Number of instructions fetched each cycle (Total)
system.switch_cpus0.fetch.rateDist::mean     0.948565                       # Number of instructions fetched each cycle (Total)
system.switch_cpus0.fetch.rateDist::stdev     2.317937                       # Number of instructions fetched each cycle (Total)
system.switch_cpus0.fetch.rateDist::underflows            0      0.00%      0.00% # Number of instructions fetched each cycle (Total)
system.switch_cpus0.fetch.rateDist::0       123552069     83.03%     83.03% # Number of instructions fetched each cycle (Total)
system.switch_cpus0.fetch.rateDist::1         1272016      0.85%     83.89% # Number of instructions fetched each cycle (Total)
system.switch_cpus0.fetch.rateDist::2         2330256      1.57%     85.46% # Number of instructions fetched each cycle (Total)
system.switch_cpus0.fetch.rateDist::3         1945942      1.31%     86.76% # Number of instructions fetched each cycle (Total)
system.switch_cpus0.fetch.rateDist::4         3566315      2.40%     89.16% # Number of instructions fetched each cycle (Total)
system.switch_cpus0.fetch.rateDist::5         3859450      2.59%     91.75% # Number of instructions fetched each cycle (Total)
system.switch_cpus0.fetch.rateDist::6          845610      0.57%     92.32% # Number of instructions fetched each cycle (Total)
system.switch_cpus0.fetch.rateDist::7          663941      0.45%     92.77% # Number of instructions fetched each cycle (Total)
system.switch_cpus0.fetch.rateDist::8        10761166      7.23%    100.00% # Number of instructions fetched each cycle (Total)
system.switch_cpus0.fetch.rateDist::overflows            0      0.00%    100.00% # Number of instructions fetched each cycle (Total)
system.switch_cpus0.fetch.rateDist::min_value            0                       # Number of instructions fetched each cycle (Total)
system.switch_cpus0.fetch.rateDist::max_value            8                       # Number of instructions fetched each cycle (Total)
system.switch_cpus0.fetch.rateDist::total    148796765                       # Number of instructions fetched each cycle (Total)
system.switch_cpus0.fetch.branchRate         0.148276                       # Number of branch fetches per cycle
system.switch_cpus0.fetch.rate               0.824030                       # Number of inst fetches per cycle
system.switch_cpus0.decode.IdleCycles       116744524                       # Number of cycles decode is idle
system.switch_cpus0.decode.BlockedCycles      3048392                       # Number of cycles decode is blocked
system.switch_cpus0.decode.RunCycles         25031670                       # Number of cycles decode is running
system.switch_cpus0.decode.UnblockCycles        25741                       # Number of cycles decode is unblocking
system.switch_cpus0.decode.SquashCycles       3946430                       # Number of cycles decode is squashing
system.switch_cpus0.decode.BranchResolved      2401432                       # Number of times decode resolved a branch
system.switch_cpus0.decode.BranchMispred         5181                       # Number of times decode detected a branch misprediction
system.switch_cpus0.decode.DecodedInsts     140045784                       # Number of instructions handled by decode
system.switch_cpus0.decode.SquashedInsts         1308                       # Number of squashed instructions handled by decode
system.switch_cpus0.rename.SquashCycles       3946430                       # Number of cycles rename is squashing
system.switch_cpus0.rename.IdleCycles       117216195                       # Number of cycles rename is idle
system.switch_cpus0.rename.BlockCycles        1425537                       # Number of cycles rename is blocking
system.switch_cpus0.rename.serializeStallCycles       783878                       # count of cycles rename stalled for serializing inst
system.switch_cpus0.rename.RunCycles         24574528                       # Number of cycles rename is running
system.switch_cpus0.rename.UnblockCycles       850190                       # Number of cycles rename is unblocking
system.switch_cpus0.rename.RenamedInsts     139060842                       # Number of instructions processed by rename
system.switch_cpus0.rename.ROBFullEvents            2                       # Number of times rename has blocked due to ROB full
system.switch_cpus0.rename.IQFullEvents         91108                       # Number of times rename has blocked due to IQ full
system.switch_cpus0.rename.LSQFullEvents       511850                       # Number of times rename has blocked due to LSQ full
system.switch_cpus0.rename.RenamedOperands    184686311                       # Number of destination operands rename has renamed
system.switch_cpus0.rename.RenameLookups    630974048                       # Number of register rename lookups that rename has made
system.switch_cpus0.rename.int_rename_lookups    630974048                       # Number of integer rename lookups
system.switch_cpus0.rename.CommittedMaps    148896166                       # Number of HB maps that are committed
system.switch_cpus0.rename.UndoneMaps        35790100                       # Number of HB maps that are undone due to squashing
system.switch_cpus0.rename.serializingInsts        19855                       # count of serializing insts renamed
system.switch_cpus0.rename.tempSerializingInsts         9934                       # count of temporary serializing insts renamed
system.switch_cpus0.rename.skidInsts          2697485                       # count of insts added to the skid buffer
system.switch_cpus0.memDep0.insertedLoads     23151966                       # Number of loads inserted to the mem dependence unit.
system.switch_cpus0.memDep0.insertedStores      4493756                       # Number of stores inserted to the mem dependence unit.
system.switch_cpus0.memDep0.conflictingLoads        82001                       # Number of conflicting loads.
system.switch_cpus0.memDep0.conflictingStores      1003214                       # Number of conflicting stores.
system.switch_cpus0.iq.iqInstsAdded         137439572                       # Number of instructions added to the IQ (excludes non-spec)
system.switch_cpus0.iq.iqNonSpecInstsAdded        19856                       # Number of non-speculative instructions added to the IQ
system.switch_cpus0.iq.iqInstsIssued        129066448                       # Number of instructions issued
system.switch_cpus0.iq.iqSquashedInstsIssued       104574                       # Number of squashed instructions issued
system.switch_cpus0.iq.iqSquashedInstsExamined     22890823                       # Number of squashed instructions iterated over during squash; mainly for profiling
system.switch_cpus0.iq.iqSquashedOperandsExamined     49219493                       # Number of squashed operands that are examined and possibly removed from graph
system.switch_cpus0.iq.iqSquashedNonSpecRemoved           12                       # Number of squashed non-spec instructions that were removed
system.switch_cpus0.iq.issued_per_cycle::samples    148796765                       # Number of insts issued each cycle
system.switch_cpus0.iq.issued_per_cycle::mean     0.867401                       # Number of insts issued each cycle
system.switch_cpus0.iq.issued_per_cycle::stdev     1.478410                       # Number of insts issued each cycle
system.switch_cpus0.iq.issued_per_cycle::underflows            0      0.00%      0.00% # Number of insts issued each cycle
system.switch_cpus0.iq.issued_per_cycle::0     95075767     63.90%     63.90% # Number of insts issued each cycle
system.switch_cpus0.iq.issued_per_cycle::1     21885879     14.71%     78.60% # Number of insts issued each cycle
system.switch_cpus0.iq.issued_per_cycle::2     10978845      7.38%     85.98% # Number of insts issued each cycle
system.switch_cpus0.iq.issued_per_cycle::3      7205689      4.84%     90.83% # Number of insts issued each cycle
system.switch_cpus0.iq.issued_per_cycle::4      7506855      5.05%     95.87% # Number of insts issued each cycle
system.switch_cpus0.iq.issued_per_cycle::5      3883927      2.61%     98.48% # Number of insts issued each cycle
system.switch_cpus0.iq.issued_per_cycle::6      1742112      1.17%     99.65% # Number of insts issued each cycle
system.switch_cpus0.iq.issued_per_cycle::7       435443      0.29%     99.94% # Number of insts issued each cycle
system.switch_cpus0.iq.issued_per_cycle::8        82248      0.06%    100.00% # Number of insts issued each cycle
system.switch_cpus0.iq.issued_per_cycle::overflows            0      0.00%    100.00% # Number of insts issued each cycle
system.switch_cpus0.iq.issued_per_cycle::min_value            0                       # Number of insts issued each cycle
system.switch_cpus0.iq.issued_per_cycle::max_value            8                       # Number of insts issued each cycle
system.switch_cpus0.iq.issued_per_cycle::total    148796765                       # Number of insts issued each cycle
system.switch_cpus0.iq.fu_full::No_OpClass            0      0.00%      0.00% # attempts to use FU when none available
system.switch_cpus0.iq.fu_full::IntAlu         322814     59.55%     59.55% # attempts to use FU when none available
system.switch_cpus0.iq.fu_full::IntMult             0      0.00%     59.55% # attempts to use FU when none available
system.switch_cpus0.iq.fu_full::IntDiv              0      0.00%     59.55% # attempts to use FU when none available
system.switch_cpus0.iq.fu_full::FloatAdd            0      0.00%     59.55% # attempts to use FU when none available
system.switch_cpus0.iq.fu_full::FloatCmp            0      0.00%     59.55% # attempts to use FU when none available
system.switch_cpus0.iq.fu_full::FloatCvt            0      0.00%     59.55% # attempts to use FU when none available
system.switch_cpus0.iq.fu_full::FloatMult            0      0.00%     59.55% # attempts to use FU when none available
system.switch_cpus0.iq.fu_full::FloatDiv            0      0.00%     59.55% # attempts to use FU when none available
system.switch_cpus0.iq.fu_full::FloatSqrt            0      0.00%     59.55% # attempts to use FU when none available
system.switch_cpus0.iq.fu_full::SimdAdd             0      0.00%     59.55% # attempts to use FU when none available
system.switch_cpus0.iq.fu_full::SimdAddAcc            0      0.00%     59.55% # attempts to use FU when none available
system.switch_cpus0.iq.fu_full::SimdAlu             0      0.00%     59.55% # attempts to use FU when none available
system.switch_cpus0.iq.fu_full::SimdCmp             0      0.00%     59.55% # attempts to use FU when none available
system.switch_cpus0.iq.fu_full::SimdCvt             0      0.00%     59.55% # attempts to use FU when none available
system.switch_cpus0.iq.fu_full::SimdMisc            0      0.00%     59.55% # attempts to use FU when none available
system.switch_cpus0.iq.fu_full::SimdMult            0      0.00%     59.55% # attempts to use FU when none available
system.switch_cpus0.iq.fu_full::SimdMultAcc            0      0.00%     59.55% # attempts to use FU when none available
system.switch_cpus0.iq.fu_full::SimdShift            0      0.00%     59.55% # attempts to use FU when none available
system.switch_cpus0.iq.fu_full::SimdShiftAcc            0      0.00%     59.55% # attempts to use FU when none available
system.switch_cpus0.iq.fu_full::SimdSqrt            0      0.00%     59.55% # attempts to use FU when none available
system.switch_cpus0.iq.fu_full::SimdFloatAdd            0      0.00%     59.55% # attempts to use FU when none available
system.switch_cpus0.iq.fu_full::SimdFloatAlu            0      0.00%     59.55% # attempts to use FU when none available
system.switch_cpus0.iq.fu_full::SimdFloatCmp            0      0.00%     59.55% # attempts to use FU when none available
system.switch_cpus0.iq.fu_full::SimdFloatCvt            0      0.00%     59.55% # attempts to use FU when none available
system.switch_cpus0.iq.fu_full::SimdFloatDiv            0      0.00%     59.55% # attempts to use FU when none available
system.switch_cpus0.iq.fu_full::SimdFloatMisc            0      0.00%     59.55% # attempts to use FU when none available
system.switch_cpus0.iq.fu_full::SimdFloatMult            0      0.00%     59.55% # attempts to use FU when none available
system.switch_cpus0.iq.fu_full::SimdFloatMultAcc            0      0.00%     59.55% # attempts to use FU when none available
system.switch_cpus0.iq.fu_full::SimdFloatSqrt            0      0.00%     59.55% # attempts to use FU when none available
system.switch_cpus0.iq.fu_full::MemRead        138687     25.58%     85.13% # attempts to use FU when none available
system.switch_cpus0.iq.fu_full::MemWrite        80622     14.87%    100.00% # attempts to use FU when none available
system.switch_cpus0.iq.fu_full::IprAccess            0      0.00%    100.00% # attempts to use FU when none available
system.switch_cpus0.iq.fu_full::InstPrefetch            0      0.00%    100.00% # attempts to use FU when none available
system.switch_cpus0.iq.FU_type_0::No_OpClass            0      0.00%      0.00% # Type of FU issued
system.switch_cpus0.iq.FU_type_0::IntAlu    101899959     78.95%     78.95% # Type of FU issued
system.switch_cpus0.iq.FU_type_0::IntMult      1082186      0.84%     79.79% # Type of FU issued
system.switch_cpus0.iq.FU_type_0::IntDiv            0      0.00%     79.79% # Type of FU issued
system.switch_cpus0.iq.FU_type_0::FloatAdd            0      0.00%     79.79% # Type of FU issued
system.switch_cpus0.iq.FU_type_0::FloatCmp            0      0.00%     79.79% # Type of FU issued
system.switch_cpus0.iq.FU_type_0::FloatCvt            0      0.00%     79.79% # Type of FU issued
system.switch_cpus0.iq.FU_type_0::FloatMult            0      0.00%     79.79% # Type of FU issued
system.switch_cpus0.iq.FU_type_0::FloatDiv            0      0.00%     79.79% # Type of FU issued
system.switch_cpus0.iq.FU_type_0::FloatSqrt            0      0.00%     79.79% # Type of FU issued
system.switch_cpus0.iq.FU_type_0::SimdAdd            0      0.00%     79.79% # Type of FU issued
system.switch_cpus0.iq.FU_type_0::SimdAddAcc            0      0.00%     79.79% # Type of FU issued
system.switch_cpus0.iq.FU_type_0::SimdAlu            0      0.00%     79.79% # Type of FU issued
system.switch_cpus0.iq.FU_type_0::SimdCmp            0      0.00%     79.79% # Type of FU issued
system.switch_cpus0.iq.FU_type_0::SimdCvt            0      0.00%     79.79% # Type of FU issued
system.switch_cpus0.iq.FU_type_0::SimdMisc            0      0.00%     79.79% # Type of FU issued
system.switch_cpus0.iq.FU_type_0::SimdMult            0      0.00%     79.79% # Type of FU issued
system.switch_cpus0.iq.FU_type_0::SimdMultAcc            0      0.00%     79.79% # Type of FU issued
system.switch_cpus0.iq.FU_type_0::SimdShift            0      0.00%     79.79% # Type of FU issued
system.switch_cpus0.iq.FU_type_0::SimdShiftAcc            0      0.00%     79.79% # Type of FU issued
system.switch_cpus0.iq.FU_type_0::SimdSqrt            0      0.00%     79.79% # Type of FU issued
system.switch_cpus0.iq.FU_type_0::SimdFloatAdd            0      0.00%     79.79% # Type of FU issued
system.switch_cpus0.iq.FU_type_0::SimdFloatAlu            0      0.00%     79.79% # Type of FU issued
system.switch_cpus0.iq.FU_type_0::SimdFloatCmp            0      0.00%     79.79% # Type of FU issued
system.switch_cpus0.iq.FU_type_0::SimdFloatCvt            0      0.00%     79.79% # Type of FU issued
system.switch_cpus0.iq.FU_type_0::SimdFloatDiv            0      0.00%     79.79% # Type of FU issued
system.switch_cpus0.iq.FU_type_0::SimdFloatMisc         9921      0.01%     79.80% # Type of FU issued
system.switch_cpus0.iq.FU_type_0::SimdFloatMult            0      0.00%     79.80% # Type of FU issued
system.switch_cpus0.iq.FU_type_0::SimdFloatMultAcc            0      0.00%     79.80% # Type of FU issued
system.switch_cpus0.iq.FU_type_0::SimdFloatSqrt            0      0.00%     79.80% # Type of FU issued
system.switch_cpus0.iq.FU_type_0::MemRead     21613173     16.75%     96.54% # Type of FU issued
system.switch_cpus0.iq.FU_type_0::MemWrite      4461209      3.46%    100.00% # Type of FU issued
system.switch_cpus0.iq.FU_type_0::IprAccess            0      0.00%    100.00% # Type of FU issued
system.switch_cpus0.iq.FU_type_0::InstPrefetch            0      0.00%    100.00% # Type of FU issued
system.switch_cpus0.iq.FU_type_0::total     129066448                       # Type of FU issued
system.switch_cpus0.iq.rate                  0.857388                       # Inst issue rate
system.switch_cpus0.iq.fu_busy_cnt             542123                       # FU busy when requested
system.switch_cpus0.iq.fu_busy_rate          0.004200                       # FU busy rate (busy events/executed inst)
system.switch_cpus0.iq.int_inst_queue_reads    407576354                       # Number of integer instruction queue reads
system.switch_cpus0.iq.int_inst_queue_writes    160350559                       # Number of integer instruction queue writes
system.switch_cpus0.iq.int_inst_queue_wakeup_accesses    126142987                       # Number of integer instruction queue wakeup accesses
system.switch_cpus0.iq.fp_inst_queue_reads            0                       # Number of floating instruction queue reads
system.switch_cpus0.iq.fp_inst_queue_writes            0                       # Number of floating instruction queue writes
system.switch_cpus0.iq.fp_inst_queue_wakeup_accesses            0                       # Number of floating instruction queue wakeup accesses
system.switch_cpus0.iq.int_alu_accesses     129608571                       # Number of integer alu accesses
system.switch_cpus0.iq.fp_alu_accesses              0                       # Number of floating point alu accesses
system.switch_cpus0.iew.lsq.thread0.forwLoads       243109                       # Number of loads that had data forwarded from stores
system.switch_cpus0.iew.lsq.thread0.invAddrLoads            0                       # Number of loads ignored due to an invalid address
system.switch_cpus0.iew.lsq.thread0.squashedLoads      4221895                       # Number of loads squashed
system.switch_cpus0.iew.lsq.thread0.ignoredResponses           94                       # Number of memory responses ignored because the instruction is squashed
system.switch_cpus0.iew.lsq.thread0.memOrderViolation          308                       # Number of memory ordering violations
system.switch_cpus0.iew.lsq.thread0.squashedStores       140401                       # Number of stores squashed
system.switch_cpus0.iew.lsq.thread0.invAddrSwpfs            0                       # Number of software prefetches ignored due to an invalid address
system.switch_cpus0.iew.lsq.thread0.blockedLoads            0                       # Number of blocked loads due to partial load-store forwarding
system.switch_cpus0.iew.lsq.thread0.rescheduledLoads            0                       # Number of loads that were rescheduled
system.switch_cpus0.iew.lsq.thread0.cacheBlocked            0                       # Number of times an access to memory failed due to the cache being blocked
system.switch_cpus0.iew.iewIdleCycles               0                       # Number of cycles IEW is idle
system.switch_cpus0.iew.iewSquashCycles       3946430                       # Number of cycles IEW is squashing
system.switch_cpus0.iew.iewBlockCycles         935980                       # Number of cycles IEW is blocking
system.switch_cpus0.iew.iewUnblockCycles        51585                       # Number of cycles IEW is unblocking
system.switch_cpus0.iew.iewDispatchedInsts    137459428                       # Number of instructions dispatched to IQ
system.switch_cpus0.iew.iewDispSquashedInsts        49519                       # Number of squashed instructions skipped by dispatch
system.switch_cpus0.iew.iewDispLoadInsts     23151966                       # Number of dispatched load instructions
system.switch_cpus0.iew.iewDispStoreInsts      4493756                       # Number of dispatched store instructions
system.switch_cpus0.iew.iewDispNonSpecInsts         9934                       # Number of dispatched non-speculative instructions
system.switch_cpus0.iew.iewIQFullEvents         34028                       # Number of times the IQ has become full, causing a stall
system.switch_cpus0.iew.iewLSQFullEvents          192                       # Number of times the LSQ has become full, causing a stall
system.switch_cpus0.iew.memOrderViolationEvents          308                       # Number of memory order violations
system.switch_cpus0.iew.predictedTakenIncorrect       837351                       # Number of branches that were predicted taken incorrectly
system.switch_cpus0.iew.predictedNotTakenIncorrect      1040884                       # Number of branches that were predicted not taken incorrectly
system.switch_cpus0.iew.branchMispredicts      1878235                       # Number of branch mispredicts detected at execute
system.switch_cpus0.iew.iewExecutedInsts    127679245                       # Number of executed instructions
system.switch_cpus0.iew.iewExecLoadInsts     21278709                       # Number of load instructions executed
system.switch_cpus0.iew.iewExecSquashedInsts      1387199                       # Number of squashed instructions skipped in execute
system.switch_cpus0.iew.exec_swp                    0                       # number of swp insts executed
system.switch_cpus0.iew.exec_nop                    0                       # number of nop insts executed
system.switch_cpus0.iew.exec_refs            25739709                       # number of memory reference insts executed
system.switch_cpus0.iew.exec_branches        19665531                       # Number of branches executed
system.switch_cpus0.iew.exec_stores           4461000                       # Number of stores executed
system.switch_cpus0.iew.exec_rate            0.848173                       # Inst execution rate
system.switch_cpus0.iew.wb_sent             126256746                       # cumulative count of insts sent to commit
system.switch_cpus0.iew.wb_count            126142987                       # cumulative count of insts written-back
system.switch_cpus0.iew.wb_producers         72861623                       # num instructions producing a value
system.switch_cpus0.iew.wb_consumers        173060012                       # num instructions consuming a value
system.switch_cpus0.iew.wb_penalized                0                       # number of instrctions required to write to 'other' IQ
system.switch_cpus0.iew.wb_rate              0.837968                       # insts written-back per cycle
system.switch_cpus0.iew.wb_fanout            0.421019                       # average fanout of values written-back
system.switch_cpus0.iew.wb_penalized_rate            0                       # fraction of instructions written-back that wrote to 'other' IQ
system.switch_cpus0.commit.commitCommittedInsts    100000006                       # The number of committed instructions
system.switch_cpus0.commit.commitCommittedOps    113611589                       # The number of committed instructions
system.switch_cpus0.commit.commitSquashedInsts     23848762                       # The number of squashed insts skipped by commit
system.switch_cpus0.commit.commitNonSpecStalls        19844                       # The number of times commit has been forced to stall to communicate backwards
system.switch_cpus0.commit.branchMispredicts      1746304                       # The number of times a branch was mispredicted
system.switch_cpus0.commit.committed_per_cycle::samples    144850335                       # Number of insts commited each cycle
system.switch_cpus0.commit.committed_per_cycle::mean     0.784338                       # Number of insts commited each cycle
system.switch_cpus0.commit.committed_per_cycle::stdev     1.660259                       # Number of insts commited each cycle
system.switch_cpus0.commit.committed_per_cycle::underflows            0      0.00%      0.00% # Number of insts commited each cycle
system.switch_cpus0.commit.committed_per_cycle::0    102641378     70.86%     70.86% # Number of insts commited each cycle
system.switch_cpus0.commit.committed_per_cycle::1     16389627     11.31%     82.18% # Number of insts commited each cycle
system.switch_cpus0.commit.committed_per_cycle::2     11838380      8.17%     90.35% # Number of insts commited each cycle
system.switch_cpus0.commit.committed_per_cycle::3      2646482      1.83%     92.18% # Number of insts commited each cycle
system.switch_cpus0.commit.committed_per_cycle::4      3012308      2.08%     94.25% # Number of insts commited each cycle
system.switch_cpus0.commit.committed_per_cycle::5      1066400      0.74%     94.99% # Number of insts commited each cycle
system.switch_cpus0.commit.committed_per_cycle::6      4460094      3.08%     98.07% # Number of insts commited each cycle
system.switch_cpus0.commit.committed_per_cycle::7       901368      0.62%     98.69% # Number of insts commited each cycle
system.switch_cpus0.commit.committed_per_cycle::8      1894298      1.31%    100.00% # Number of insts commited each cycle
system.switch_cpus0.commit.committed_per_cycle::overflows            0      0.00%    100.00% # Number of insts commited each cycle
system.switch_cpus0.commit.committed_per_cycle::min_value            0                       # Number of insts commited each cycle
system.switch_cpus0.commit.committed_per_cycle::max_value            8                       # Number of insts commited each cycle
system.switch_cpus0.commit.committed_per_cycle::total    144850335                       # Number of insts commited each cycle
system.switch_cpus0.commit.committedInsts    100000006                       # Number of instructions committed
system.switch_cpus0.commit.committedOps     113611589                       # Number of ops (including micro ops) committed
system.switch_cpus0.commit.swp_count                0                       # Number of s/w prefetches committed
system.switch_cpus0.commit.refs              23283426                       # Number of memory references committed
system.switch_cpus0.commit.loads             18930071                       # Number of loads committed
system.switch_cpus0.commit.membars               9922                       # Number of memory barriers committed
system.switch_cpus0.commit.branches          17789106                       # Number of branches committed
system.switch_cpus0.commit.fp_insts                 0                       # Number of committed floating point instructions.
system.switch_cpus0.commit.int_insts         99179499                       # Number of committed integer instructions.
system.switch_cpus0.commit.function_calls      1536069                       # Number of function calls committed.
system.switch_cpus0.commit.bw_lim_events      1894298                       # number cycles where commit BW limit reached
system.switch_cpus0.commit.bw_limited               0                       # number of insts not committed due to BW limits
system.switch_cpus0.rob.rob_reads           280416388                       # The number of ROB reads
system.switch_cpus0.rob.rob_writes          278867234                       # The number of ROB writes
system.switch_cpus0.timesIdled                  39940                       # Number of times that the entire CPU went into an idle state and unscheduled itself
system.switch_cpus0.idleCycles                1737652                       # Total number of cycles that the CPU has spent unscheduled due to idling
system.switch_cpus0.committedInsts          100000006                       # Number of Instructions Simulated
system.switch_cpus0.committedOps            113611589                       # Number of Ops (including micro ops) Simulated
system.switch_cpus0.committedInsts_total    100000006                       # Number of Instructions Simulated
system.switch_cpus0.cpi                      1.505344                       # CPI: Cycles Per Instruction
system.switch_cpus0.cpi_total                1.505344                       # CPI: Total CPI of All Threads
system.switch_cpus0.ipc                      0.664300                       # IPC: Instructions Per Cycle
system.switch_cpus0.ipc_total                0.664300                       # IPC: Total IPC of All Threads
system.switch_cpus0.int_regfile_reads       590611341                       # number of integer regfile reads
system.switch_cpus0.int_regfile_writes      165735683                       # number of integer regfile writes
system.switch_cpus0.misc_regfile_reads      146818436                       # number of misc regfile reads
system.switch_cpus0.misc_regfile_writes         19844                       # number of misc regfile writes
system.switch_cpus1.dtb.inst_hits                   0                       # ITB inst hits
system.switch_cpus1.dtb.inst_misses                 0                       # ITB inst misses
system.switch_cpus1.dtb.read_hits                   0                       # DTB read hits
system.switch_cpus1.dtb.read_misses                 0                       # DTB read misses
system.switch_cpus1.dtb.write_hits                  0                       # DTB write hits
system.switch_cpus1.dtb.write_misses                0                       # DTB write misses
system.switch_cpus1.dtb.flush_tlb                   0                       # Number of times complete TLB was flushed
system.switch_cpus1.dtb.flush_tlb_mva               0                       # Number of times TLB was flushed by MVA
system.switch_cpus1.dtb.flush_tlb_mva_asid            0                       # Number of times TLB was flushed by MVA & ASID
system.switch_cpus1.dtb.flush_tlb_asid              0                       # Number of times TLB was flushed by ASID
system.switch_cpus1.dtb.flush_entries               0                       # Number of entries that have been flushed from TLB
system.switch_cpus1.dtb.align_faults                0                       # Number of TLB faults due to alignment restrictions
system.switch_cpus1.dtb.prefetch_faults             0                       # Number of TLB faults due to prefetch
system.switch_cpus1.dtb.domain_faults               0                       # Number of TLB faults due to domain restrictions
system.switch_cpus1.dtb.perms_faults                0                       # Number of TLB faults due to permissions restrictions
system.switch_cpus1.dtb.read_accesses               0                       # DTB read accesses
system.switch_cpus1.dtb.write_accesses              0                       # DTB write accesses
system.switch_cpus1.dtb.inst_accesses               0                       # ITB inst accesses
system.switch_cpus1.dtb.hits                        0                       # DTB hits
system.switch_cpus1.dtb.misses                      0                       # DTB misses
system.switch_cpus1.dtb.accesses                    0                       # DTB accesses
system.switch_cpus1.itb.inst_hits                   0                       # ITB inst hits
system.switch_cpus1.itb.inst_misses                 0                       # ITB inst misses
system.switch_cpus1.itb.read_hits                   0                       # DTB read hits
system.switch_cpus1.itb.read_misses                 0                       # DTB read misses
system.switch_cpus1.itb.write_hits                  0                       # DTB write hits
system.switch_cpus1.itb.write_misses                0                       # DTB write misses
system.switch_cpus1.itb.flush_tlb                   0                       # Number of times complete TLB was flushed
system.switch_cpus1.itb.flush_tlb_mva               0                       # Number of times TLB was flushed by MVA
system.switch_cpus1.itb.flush_tlb_mva_asid            0                       # Number of times TLB was flushed by MVA & ASID
system.switch_cpus1.itb.flush_tlb_asid              0                       # Number of times TLB was flushed by ASID
system.switch_cpus1.itb.flush_entries               0                       # Number of entries that have been flushed from TLB
system.switch_cpus1.itb.align_faults                0                       # Number of TLB faults due to alignment restrictions
system.switch_cpus1.itb.prefetch_faults             0                       # Number of TLB faults due to prefetch
system.switch_cpus1.itb.domain_faults               0                       # Number of TLB faults due to domain restrictions
system.switch_cpus1.itb.perms_faults                0                       # Number of TLB faults due to permissions restrictions
system.switch_cpus1.itb.read_accesses               0                       # DTB read accesses
system.switch_cpus1.itb.write_accesses              0                       # DTB write accesses
system.switch_cpus1.itb.inst_accesses               0                       # ITB inst accesses
system.switch_cpus1.itb.hits                        0                       # DTB hits
system.switch_cpus1.itb.misses                      0                       # DTB misses
system.switch_cpus1.itb.accesses                    0                       # DTB accesses
system.cpu1.workload.num_syscalls                   0                       # Number of system calls
system.switch_cpus1.numCycles               150534417                       # number of cpu cycles simulated
system.switch_cpus1.numWorkItemsStarted             0                       # number of work items this cpu started
system.switch_cpus1.numWorkItemsCompleted            0                       # number of work items this cpu completed
system.switch_cpus1.BPredUnit.lookups        25292930                       # Number of BP lookups
system.switch_cpus1.BPredUnit.condPredicted     20720933                       # Number of conditional branches predicted
system.switch_cpus1.BPredUnit.condIncorrect      2151989                       # Number of conditional branches incorrect
system.switch_cpus1.BPredUnit.BTBLookups     10455746                       # Number of BTB lookups
system.switch_cpus1.BPredUnit.BTBHits        10021375                       # Number of BTB hits
system.switch_cpus1.BPredUnit.BTBCorrect            0                       # Number of correct BTB predictions (this stat may not work properly.
system.switch_cpus1.BPredUnit.usedRAS         2592190                       # Number of times the RAS was used to get a target.
system.switch_cpus1.BPredUnit.RASInCorrect        99103                       # Number of incorrect RAS predictions.
system.switch_cpus1.fetch.icacheStallCycles    112498390                       # Number of cycles fetch is stalled on an Icache miss
system.switch_cpus1.fetch.Insts             135795527                       # Number of instructions fetch has processed
system.switch_cpus1.fetch.Branches           25292930                       # Number of branches that fetch encountered
system.switch_cpus1.fetch.predictedBranches     12613565                       # Number of branches that fetch has predicted taken
system.switch_cpus1.fetch.Cycles             29427654                       # Number of cycles fetch has run and was not squashing or blocked
system.switch_cpus1.fetch.SquashCycles        6406965                       # Number of cycles fetch has spent squashing
system.switch_cpus1.fetch.BlockedCycles       3824520                       # Number of cycles fetch has spent blocked
system.switch_cpus1.fetch.CacheLines         13158197                       # Number of cache lines fetched
system.switch_cpus1.fetch.IcacheSquashes      1680154                       # Number of outstanding Icache misses that were squashed
system.switch_cpus1.fetch.rateDist::samples    149986945                       # Number of instructions fetched each cycle (Total)
system.switch_cpus1.fetch.rateDist::mean     1.107669                       # Number of instructions fetched each cycle (Total)
system.switch_cpus1.fetch.rateDist::stdev     2.532109                       # Number of instructions fetched each cycle (Total)
system.switch_cpus1.fetch.rateDist::underflows            0      0.00%      0.00% # Number of instructions fetched each cycle (Total)
system.switch_cpus1.fetch.rateDist::0       120559291     80.38%     80.38% # Number of instructions fetched each cycle (Total)
system.switch_cpus1.fetch.rateDist::1         2372515      1.58%     81.96% # Number of instructions fetched each cycle (Total)
system.switch_cpus1.fetch.rateDist::2         4042611      2.70%     84.66% # Number of instructions fetched each cycle (Total)
system.switch_cpus1.fetch.rateDist::3         2343685      1.56%     86.22% # Number of instructions fetched each cycle (Total)
system.switch_cpus1.fetch.rateDist::4         1837927      1.23%     87.44% # Number of instructions fetched each cycle (Total)
system.switch_cpus1.fetch.rateDist::5         1624326      1.08%     88.53% # Number of instructions fetched each cycle (Total)
system.switch_cpus1.fetch.rateDist::6          994341      0.66%     89.19% # Number of instructions fetched each cycle (Total)
system.switch_cpus1.fetch.rateDist::7         2490338      1.66%     90.85% # Number of instructions fetched each cycle (Total)
system.switch_cpus1.fetch.rateDist::8        13721911      9.15%    100.00% # Number of instructions fetched each cycle (Total)
system.switch_cpus1.fetch.rateDist::overflows            0      0.00%    100.00% # Number of instructions fetched each cycle (Total)
system.switch_cpus1.fetch.rateDist::min_value            0                       # Number of instructions fetched each cycle (Total)
system.switch_cpus1.fetch.rateDist::max_value            8                       # Number of instructions fetched each cycle (Total)
system.switch_cpus1.fetch.rateDist::total    149986945                       # Number of instructions fetched each cycle (Total)
system.switch_cpus1.fetch.branchRate         0.168021                       # Number of branch fetches per cycle
system.switch_cpus1.fetch.rate               0.902090                       # Number of inst fetches per cycle
system.switch_cpus1.decode.IdleCycles       111792739                       # Number of cycles decode is idle
system.switch_cpus1.decode.BlockedCycles      5077641                       # Number of cycles decode is blocked
system.switch_cpus1.decode.RunCycles         28803162                       # Number of cycles decode is running
system.switch_cpus1.decode.UnblockCycles        77436                       # Number of cycles decode is unblocking
system.switch_cpus1.decode.SquashCycles       4235955                       # Number of cycles decode is squashing
system.switch_cpus1.decode.BranchResolved      4143785                       # Number of times decode resolved a branch
system.switch_cpus1.decode.BranchMispred          430                       # Number of times decode detected a branch misprediction
system.switch_cpus1.decode.DecodedInsts     163649964                       # Number of instructions handled by decode
system.switch_cpus1.decode.SquashedInsts         2391                       # Number of squashed instructions handled by decode
system.switch_cpus1.rename.SquashCycles       4235955                       # Number of cycles rename is squashing
system.switch_cpus1.rename.IdleCycles       112357482                       # Number of cycles rename is idle
system.switch_cpus1.rename.BlockCycles         645139                       # Number of cycles rename is blocking
system.switch_cpus1.rename.serializeStallCycles      3468393                       # count of cycles rename stalled for serializing inst
system.switch_cpus1.rename.RunCycles         28297497                       # Number of cycles rename is running
system.switch_cpus1.rename.UnblockCycles       982468                       # Number of cycles rename is unblocking
system.switch_cpus1.rename.RenamedInsts     162534002                       # Number of instructions processed by rename
system.switch_cpus1.rename.ROBFullEvents            7                       # Number of times rename has blocked due to ROB full
system.switch_cpus1.rename.IQFullEvents        101036                       # Number of times rename has blocked due to IQ full
system.switch_cpus1.rename.LSQFullEvents       567743                       # Number of times rename has blocked due to LSQ full
system.switch_cpus1.rename.RenamedOperands    229457049                       # Number of destination operands rename has renamed
system.switch_cpus1.rename.RenameLookups    756159260                       # Number of register rename lookups that rename has made
system.switch_cpus1.rename.int_rename_lookups    756159260                       # Number of integer rename lookups
system.switch_cpus1.rename.CommittedMaps    183996435                       # Number of HB maps that are committed
system.switch_cpus1.rename.UndoneMaps        45460614                       # Number of HB maps that are undone due to squashing
system.switch_cpus1.rename.serializingInsts        36568                       # count of serializing insts renamed
system.switch_cpus1.rename.tempSerializingInsts        18311                       # count of temporary serializing insts renamed
system.switch_cpus1.rename.skidInsts          2858695                       # count of insts added to the skid buffer
system.switch_cpus1.memDep0.insertedLoads     15096770                       # Number of loads inserted to the mem dependence unit.
system.switch_cpus1.memDep0.insertedStores      7728577                       # Number of stores inserted to the mem dependence unit.
system.switch_cpus1.memDep0.conflictingLoads        80909                       # Number of conflicting loads.
system.switch_cpus1.memDep0.conflictingStores      1803697                       # Number of conflicting stores.
system.switch_cpus1.iq.iqInstsAdded         157202368                       # Number of instructions added to the IQ (excludes non-spec)
system.switch_cpus1.iq.iqNonSpecInstsAdded        36567                       # Number of non-speculative instructions added to the IQ
system.switch_cpus1.iq.iqInstsIssued        147721124                       # Number of instructions issued
system.switch_cpus1.iq.iqSquashedInstsIssued        94550                       # Number of squashed instructions issued
system.switch_cpus1.iq.iqSquashedInstsExamined     23169648                       # Number of squashed instructions iterated over during squash; mainly for profiling
system.switch_cpus1.iq.iqSquashedOperandsExamined     51177561                       # Number of squashed operands that are examined and possibly removed from graph
system.switch_cpus1.iq.iqSquashedNonSpecRemoved           55                       # Number of squashed non-spec instructions that were removed
system.switch_cpus1.iq.issued_per_cycle::samples    149986945                       # Number of insts issued each cycle
system.switch_cpus1.iq.issued_per_cycle::mean     0.984893                       # Number of insts issued each cycle
system.switch_cpus1.iq.issued_per_cycle::stdev     1.546092                       # Number of insts issued each cycle
system.switch_cpus1.iq.issued_per_cycle::underflows            0      0.00%      0.00% # Number of insts issued each cycle
system.switch_cpus1.iq.issued_per_cycle::0     89675805     59.79%     59.79% # Number of insts issued each cycle
system.switch_cpus1.iq.issued_per_cycle::1     23143861     15.43%     75.22% # Number of insts issued each cycle
system.switch_cpus1.iq.issued_per_cycle::2     12525297      8.35%     83.57% # Number of insts issued each cycle
system.switch_cpus1.iq.issued_per_cycle::3      9233759      6.16%     89.73% # Number of insts issued each cycle
system.switch_cpus1.iq.issued_per_cycle::4      9004537      6.00%     95.73% # Number of insts issued each cycle
system.switch_cpus1.iq.issued_per_cycle::5      3337987      2.23%     97.96% # Number of insts issued each cycle
system.switch_cpus1.iq.issued_per_cycle::6      2533473      1.69%     99.65% # Number of insts issued each cycle
system.switch_cpus1.iq.issued_per_cycle::7       341337      0.23%     99.87% # Number of insts issued each cycle
system.switch_cpus1.iq.issued_per_cycle::8       190889      0.13%    100.00% # Number of insts issued each cycle
system.switch_cpus1.iq.issued_per_cycle::overflows            0      0.00%    100.00% # Number of insts issued each cycle
system.switch_cpus1.iq.issued_per_cycle::min_value            0                       # Number of insts issued each cycle
system.switch_cpus1.iq.issued_per_cycle::max_value            8                       # Number of insts issued each cycle
system.switch_cpus1.iq.issued_per_cycle::total    149986945                       # Number of insts issued each cycle
system.switch_cpus1.iq.fu_full::No_OpClass            0      0.00%      0.00% # attempts to use FU when none available
system.switch_cpus1.iq.fu_full::IntAlu         132388     28.13%     28.13% # attempts to use FU when none available
system.switch_cpus1.iq.fu_full::IntMult             8      0.00%     28.13% # attempts to use FU when none available
system.switch_cpus1.iq.fu_full::IntDiv              0      0.00%     28.13% # attempts to use FU when none available
system.switch_cpus1.iq.fu_full::FloatAdd            0      0.00%     28.13% # attempts to use FU when none available
system.switch_cpus1.iq.fu_full::FloatCmp            0      0.00%     28.13% # attempts to use FU when none available
system.switch_cpus1.iq.fu_full::FloatCvt            0      0.00%     28.13% # attempts to use FU when none available
system.switch_cpus1.iq.fu_full::FloatMult            0      0.00%     28.13% # attempts to use FU when none available
system.switch_cpus1.iq.fu_full::FloatDiv            0      0.00%     28.13% # attempts to use FU when none available
system.switch_cpus1.iq.fu_full::FloatSqrt            0      0.00%     28.13% # attempts to use FU when none available
system.switch_cpus1.iq.fu_full::SimdAdd             0      0.00%     28.13% # attempts to use FU when none available
system.switch_cpus1.iq.fu_full::SimdAddAcc            0      0.00%     28.13% # attempts to use FU when none available
system.switch_cpus1.iq.fu_full::SimdAlu             0      0.00%     28.13% # attempts to use FU when none available
system.switch_cpus1.iq.fu_full::SimdCmp             0      0.00%     28.13% # attempts to use FU when none available
system.switch_cpus1.iq.fu_full::SimdCvt             0      0.00%     28.13% # attempts to use FU when none available
system.switch_cpus1.iq.fu_full::SimdMisc            0      0.00%     28.13% # attempts to use FU when none available
system.switch_cpus1.iq.fu_full::SimdMult            0      0.00%     28.13% # attempts to use FU when none available
system.switch_cpus1.iq.fu_full::SimdMultAcc            0      0.00%     28.13% # attempts to use FU when none available
system.switch_cpus1.iq.fu_full::SimdShift            0      0.00%     28.13% # attempts to use FU when none available
system.switch_cpus1.iq.fu_full::SimdShiftAcc            0      0.00%     28.13% # attempts to use FU when none available
system.switch_cpus1.iq.fu_full::SimdSqrt            0      0.00%     28.13% # attempts to use FU when none available
system.switch_cpus1.iq.fu_full::SimdFloatAdd            0      0.00%     28.13% # attempts to use FU when none available
system.switch_cpus1.iq.fu_full::SimdFloatAlu            0      0.00%     28.13% # attempts to use FU when none available
system.switch_cpus1.iq.fu_full::SimdFloatCmp            0      0.00%     28.13% # attempts to use FU when none available
system.switch_cpus1.iq.fu_full::SimdFloatCvt            0      0.00%     28.13% # attempts to use FU when none available
system.switch_cpus1.iq.fu_full::SimdFloatDiv            0      0.00%     28.13% # attempts to use FU when none available
system.switch_cpus1.iq.fu_full::SimdFloatMisc            0      0.00%     28.13% # attempts to use FU when none available
system.switch_cpus1.iq.fu_full::SimdFloatMult            0      0.00%     28.13% # attempts to use FU when none available
system.switch_cpus1.iq.fu_full::SimdFloatMultAcc            0      0.00%     28.13% # attempts to use FU when none available
system.switch_cpus1.iq.fu_full::SimdFloatSqrt            0      0.00%     28.13% # attempts to use FU when none available
system.switch_cpus1.iq.fu_full::MemRead        175918     37.38%     65.51% # attempts to use FU when none available
system.switch_cpus1.iq.fu_full::MemWrite       162345     34.49%    100.00% # attempts to use FU when none available
system.switch_cpus1.iq.fu_full::IprAccess            0      0.00%    100.00% # attempts to use FU when none available
system.switch_cpus1.iq.fu_full::InstPrefetch            0      0.00%    100.00% # attempts to use FU when none available
system.switch_cpus1.iq.FU_type_0::No_OpClass            0      0.00%      0.00% # Type of FU issued
system.switch_cpus1.iq.FU_type_0::IntAlu    124667900     84.39%     84.39% # Type of FU issued
system.switch_cpus1.iq.FU_type_0::IntMult      2000650      1.35%     85.75% # Type of FU issued
system.switch_cpus1.iq.FU_type_0::IntDiv            0      0.00%     85.75% # Type of FU issued
system.switch_cpus1.iq.FU_type_0::FloatAdd            0      0.00%     85.75% # Type of FU issued
system.switch_cpus1.iq.FU_type_0::FloatCmp            0      0.00%     85.75% # Type of FU issued
system.switch_cpus1.iq.FU_type_0::FloatCvt            0      0.00%     85.75% # Type of FU issued
system.switch_cpus1.iq.FU_type_0::FloatMult            0      0.00%     85.75% # Type of FU issued
system.switch_cpus1.iq.FU_type_0::FloatDiv            0      0.00%     85.75% # Type of FU issued
system.switch_cpus1.iq.FU_type_0::FloatSqrt            0      0.00%     85.75% # Type of FU issued
system.switch_cpus1.iq.FU_type_0::SimdAdd            0      0.00%     85.75% # Type of FU issued
system.switch_cpus1.iq.FU_type_0::SimdAddAcc            0      0.00%     85.75% # Type of FU issued
system.switch_cpus1.iq.FU_type_0::SimdAlu            0      0.00%     85.75% # Type of FU issued
system.switch_cpus1.iq.FU_type_0::SimdCmp            0      0.00%     85.75% # Type of FU issued
system.switch_cpus1.iq.FU_type_0::SimdCvt            0      0.00%     85.75% # Type of FU issued
system.switch_cpus1.iq.FU_type_0::SimdMisc            0      0.00%     85.75% # Type of FU issued
system.switch_cpus1.iq.FU_type_0::SimdMult            0      0.00%     85.75% # Type of FU issued
system.switch_cpus1.iq.FU_type_0::SimdMultAcc            0      0.00%     85.75% # Type of FU issued
system.switch_cpus1.iq.FU_type_0::SimdShift            0      0.00%     85.75% # Type of FU issued
system.switch_cpus1.iq.FU_type_0::SimdShiftAcc            0      0.00%     85.75% # Type of FU issued
system.switch_cpus1.iq.FU_type_0::SimdSqrt            0      0.00%     85.75% # Type of FU issued
system.switch_cpus1.iq.FU_type_0::SimdFloatAdd            0      0.00%     85.75% # Type of FU issued
system.switch_cpus1.iq.FU_type_0::SimdFloatAlu            0      0.00%     85.75% # Type of FU issued
system.switch_cpus1.iq.FU_type_0::SimdFloatCmp            0      0.00%     85.75% # Type of FU issued
system.switch_cpus1.iq.FU_type_0::SimdFloatCvt            0      0.00%     85.75% # Type of FU issued
system.switch_cpus1.iq.FU_type_0::SimdFloatDiv            0      0.00%     85.75% # Type of FU issued
system.switch_cpus1.iq.FU_type_0::SimdFloatMisc        18257      0.01%     85.76% # Type of FU issued
system.switch_cpus1.iq.FU_type_0::SimdFloatMult            0      0.00%     85.76% # Type of FU issued
system.switch_cpus1.iq.FU_type_0::SimdFloatMultAcc            0      0.00%     85.76% # Type of FU issued
system.switch_cpus1.iq.FU_type_0::SimdFloatSqrt            0      0.00%     85.76% # Type of FU issued
system.switch_cpus1.iq.FU_type_0::MemRead     13335205      9.03%     94.79% # Type of FU issued
system.switch_cpus1.iq.FU_type_0::MemWrite      7699112      5.21%    100.00% # Type of FU issued
system.switch_cpus1.iq.FU_type_0::IprAccess            0      0.00%    100.00% # Type of FU issued
system.switch_cpus1.iq.FU_type_0::InstPrefetch            0      0.00%    100.00% # Type of FU issued
system.switch_cpus1.iq.FU_type_0::total     147721124                       # Type of FU issued
system.switch_cpus1.iq.rate                  0.981311                       # Inst issue rate
system.switch_cpus1.iq.fu_busy_cnt             470659                       # FU busy when requested
system.switch_cpus1.iq.fu_busy_rate          0.003186                       # FU busy rate (busy events/executed inst)
system.switch_cpus1.iq.int_inst_queue_reads    445994402                       # Number of integer instruction queue reads
system.switch_cpus1.iq.int_inst_queue_writes    180408966                       # Number of integer instruction queue writes
system.switch_cpus1.iq.int_inst_queue_wakeup_accesses    144572046                       # Number of integer instruction queue wakeup accesses
system.switch_cpus1.iq.fp_inst_queue_reads            0                       # Number of floating instruction queue reads
system.switch_cpus1.iq.fp_inst_queue_writes            0                       # Number of floating instruction queue writes
system.switch_cpus1.iq.fp_inst_queue_wakeup_accesses            0                       # Number of floating instruction queue wakeup accesses
system.switch_cpus1.iq.int_alu_accesses     148191783                       # Number of integer alu accesses
system.switch_cpus1.iq.fp_alu_accesses              0                       # Number of floating point alu accesses
system.switch_cpus1.iew.lsq.thread0.forwLoads       303782                       # Number of loads that had data forwarded from stores
system.switch_cpus1.iew.lsq.thread0.invAddrLoads            0                       # Number of loads ignored due to an invalid address
system.switch_cpus1.iew.lsq.thread0.squashedLoads      3125161                       # Number of loads squashed
system.switch_cpus1.iew.lsq.thread0.ignoredResponses           33                       # Number of memory responses ignored because the instruction is squashed
system.switch_cpus1.iew.lsq.thread0.memOrderViolation          387                       # Number of memory ordering violations
system.switch_cpus1.iew.lsq.thread0.squashedStores       121585                       # Number of stores squashed
system.switch_cpus1.iew.lsq.thread0.invAddrSwpfs            0                       # Number of software prefetches ignored due to an invalid address
system.switch_cpus1.iew.lsq.thread0.blockedLoads            0                       # Number of blocked loads due to partial load-store forwarding
system.switch_cpus1.iew.lsq.thread0.rescheduledLoads            0                       # Number of loads that were rescheduled
system.switch_cpus1.iew.lsq.thread0.cacheBlocked           36                       # Number of times an access to memory failed due to the cache being blocked
system.switch_cpus1.iew.iewIdleCycles               0                       # Number of cycles IEW is idle
system.switch_cpus1.iew.iewSquashCycles       4235955                       # Number of cycles IEW is squashing
system.switch_cpus1.iew.iewBlockCycles         431367                       # Number of cycles IEW is blocking
system.switch_cpus1.iew.iewUnblockCycles        57939                       # Number of cycles IEW is unblocking
system.switch_cpus1.iew.iewDispatchedInsts    157238935                       # Number of instructions dispatched to IQ
system.switch_cpus1.iew.iewDispSquashedInsts       823984                       # Number of squashed instructions skipped by dispatch
system.switch_cpus1.iew.iewDispLoadInsts     15096770                       # Number of dispatched load instructions
system.switch_cpus1.iew.iewDispStoreInsts      7728577                       # Number of dispatched store instructions
system.switch_cpus1.iew.iewDispNonSpecInsts        18311                       # Number of dispatched non-speculative instructions
system.switch_cpus1.iew.iewIQFullEvents         46960                       # Number of times the IQ has become full, causing a stall
system.switch_cpus1.iew.iewLSQFullEvents            7                       # Number of times the LSQ has become full, causing a stall
system.switch_cpus1.iew.memOrderViolationEvents          387                       # Number of memory order violations
system.switch_cpus1.iew.predictedTakenIncorrect      1244694                       # Number of branches that were predicted taken incorrectly
system.switch_cpus1.iew.predictedNotTakenIncorrect      1134916                       # Number of branches that were predicted not taken incorrectly
system.switch_cpus1.iew.branchMispredicts      2379610                       # Number of branch mispredicts detected at execute
system.switch_cpus1.iew.iewExecutedInsts    145418357                       # Number of executed instructions
system.switch_cpus1.iew.iewExecLoadInsts     13003173                       # Number of load instructions executed
system.switch_cpus1.iew.iewExecSquashedInsts      2302767                       # Number of squashed instructions skipped in execute
system.switch_cpus1.iew.exec_swp                    0                       # number of swp insts executed
system.switch_cpus1.iew.exec_nop                    0                       # number of nop insts executed
system.switch_cpus1.iew.exec_refs            20701988                       # number of memory reference insts executed
system.switch_cpus1.iew.exec_branches        20577283                       # Number of branches executed
system.switch_cpus1.iew.exec_stores           7698815                       # Number of stores executed
system.switch_cpus1.iew.exec_rate            0.966014                       # Inst execution rate
system.switch_cpus1.iew.wb_sent             144572196                       # cumulative count of insts sent to commit
system.switch_cpus1.iew.wb_count            144572046                       # cumulative count of insts written-back
system.switch_cpus1.iew.wb_producers         85479698                       # num instructions producing a value
system.switch_cpus1.iew.wb_consumers        236675942                       # num instructions consuming a value
system.switch_cpus1.iew.wb_penalized                0                       # number of instrctions required to write to 'other' IQ
system.switch_cpus1.iew.wb_rate              0.960392                       # insts written-back per cycle
system.switch_cpus1.iew.wb_fanout            0.361168                       # average fanout of values written-back
system.switch_cpus1.iew.wb_penalized_rate            0                       # fraction of instructions written-back that wrote to 'other' IQ
system.switch_cpus1.commit.commitCommittedInsts    107007159                       # The number of committed instructions
system.switch_cpus1.commit.commitCommittedOps    131898117                       # The number of committed instructions
system.switch_cpus1.commit.commitSquashedInsts     25341131                       # The number of squashed insts skipped by commit
system.switch_cpus1.commit.commitNonSpecStalls        36512                       # The number of times commit has been forced to stall to communicate backwards
system.switch_cpus1.commit.branchMispredicts      2169874                       # The number of times a branch was mispredicted
system.switch_cpus1.commit.committed_per_cycle::samples    145750990                       # Number of insts commited each cycle
system.switch_cpus1.commit.committed_per_cycle::mean     0.904955                       # Number of insts commited each cycle
system.switch_cpus1.commit.committed_per_cycle::stdev     1.714040                       # Number of insts commited each cycle
system.switch_cpus1.commit.committed_per_cycle::underflows            0      0.00%      0.00% # Number of insts commited each cycle
system.switch_cpus1.commit.committed_per_cycle::0     92421600     63.41%     63.41% # Number of insts commited each cycle
system.switch_cpus1.commit.committed_per_cycle::1     25692697     17.63%     81.04% # Number of insts commited each cycle
system.switch_cpus1.commit.committed_per_cycle::2     10053150      6.90%     87.94% # Number of insts commited each cycle
system.switch_cpus1.commit.committed_per_cycle::3      5291153      3.63%     91.57% # Number of insts commited each cycle
system.switch_cpus1.commit.committed_per_cycle::4      4497491      3.09%     94.65% # Number of insts commited each cycle
system.switch_cpus1.commit.committed_per_cycle::5      2171717      1.49%     96.14% # Number of insts commited each cycle
system.switch_cpus1.commit.committed_per_cycle::6      1015783      0.70%     96.84% # Number of insts commited each cycle
system.switch_cpus1.commit.committed_per_cycle::7      1576778      1.08%     97.92% # Number of insts commited each cycle
system.switch_cpus1.commit.committed_per_cycle::8      3030621      2.08%    100.00% # Number of insts commited each cycle
system.switch_cpus1.commit.committed_per_cycle::overflows            0      0.00%    100.00% # Number of insts commited each cycle
system.switch_cpus1.commit.committed_per_cycle::min_value            0                       # Number of insts commited each cycle
system.switch_cpus1.commit.committed_per_cycle::max_value            8                       # Number of insts commited each cycle
system.switch_cpus1.commit.committed_per_cycle::total    145750990                       # Number of insts commited each cycle
system.switch_cpus1.commit.committedInsts    107007159                       # Number of instructions committed
system.switch_cpus1.commit.committedOps     131898117                       # Number of ops (including micro ops) committed
system.switch_cpus1.commit.swp_count                0                       # Number of s/w prefetches committed
system.switch_cpus1.commit.refs              19578601                       # Number of memory references committed
system.switch_cpus1.commit.loads             11971609                       # Number of loads committed
[...]
system.cpu2.icache.ReadReq_miss_latency::total      3711488                       # number of ReadReq miss cycles
system.cpu2.icache.demand_miss_latency::switch_cpus2.inst      3711488                       # number of demand (read+write) miss cycles
system.cpu2.icache.demand_miss_latency::total      3711488                       # number of demand (read+write) miss cycles
system.cpu2.icache.overall_miss_latency::switch_cpus2.inst      3711488                       # number of overall miss cycles
system.cpu2.icache.overall_miss_latency::total      3711488                       # number of overall miss cycles
system.cpu2.icache.ReadReq_accesses::switch_cpus2.inst     12751582                       # number of ReadReq accesses(hits+misses)
system.cpu2.icache.ReadReq_accesses::total     12751582                       # number of ReadReq accesses(hits+misses)
system.cpu2.icache.demand_accesses::switch_cpus2.inst     12751582                       # number of demand (read+write) accesses
system.cpu2.icache.demand_accesses::total     12751582                       # number of demand (read+write) accesses
system.cpu2.icache.overall_accesses::switch_cpus2.inst     12751582                       # number of overall (read+write) accesses
system.cpu2.icache.overall_accesses::total     12751582                       # number of overall (read+write) accesses
system.cpu2.icache.ReadReq_miss_rate::switch_cpus2.inst     0.000001                       # miss rate for ReadReq accesses
system.cpu2.icache.ReadReq_miss_rate::total     0.000001                       # miss rate for ReadReq accesses
system.cpu2.icache.demand_miss_rate::switch_cpus2.inst     0.000001                       # miss rate for demand accesses
system.cpu2.icache.demand_miss_rate::total     0.000001                       # miss rate for demand accesses
system.cpu2.icache.overall_miss_rate::switch_cpus2.inst     0.000001                       # miss rate for overall accesses
system.cpu2.icache.overall_miss_rate::total     0.000001                       # miss rate for overall accesses
system.cpu2.icache.ReadReq_avg_miss_latency::switch_cpus2.inst 218322.823529                       # average ReadReq miss latency
system.cpu2.icache.ReadReq_avg_miss_latency::total 218322.823529                       # average ReadReq miss latency
system.cpu2.icache.demand_avg_miss_latency::switch_cpus2.inst 218322.823529                       # average overall miss latency
system.cpu2.icache.demand_avg_miss_latency::total 218322.823529                       # average overall miss latency
system.cpu2.icache.overall_avg_miss_latency::switch_cpus2.inst 218322.823529                       # average overall miss latency
system.cpu2.icache.overall_avg_miss_latency::total 218322.823529                       # average overall miss latency
system.cpu2.icache.blocked_cycles::no_mshrs            0                       # number of cycles access was blocked
system.cpu2.icache.blocked_cycles::no_targets            0                       # number of cycles access was blocked
system.cpu2.icache.blocked::no_mshrs                0                       # number of cycles access was blocked
system.cpu2.icache.blocked::no_targets              0                       # number of cycles access was blocked
system.cpu2.icache.avg_blocked_cycles::no_mshrs          nan                       # average number of cycles each access was blocked
system.cpu2.icache.avg_blocked_cycles::no_targets          nan                       # average number of cycles each access was blocked
system.cpu2.icache.fast_writes                      0                       # number of fast writes performed
system.cpu2.icache.cache_copies                     0                       # number of cache copies performed
system.cpu2.icache.ReadReq_mshr_hits::switch_cpus2.inst            4                       # number of ReadReq MSHR hits
system.cpu2.icache.ReadReq_mshr_hits::total            4                       # number of ReadReq MSHR hits
system.cpu2.icache.demand_mshr_hits::switch_cpus2.inst            4                       # number of demand (read+write) MSHR hits
system.cpu2.icache.demand_mshr_hits::total            4                       # number of demand (read+write) MSHR hits
system.cpu2.icache.overall_mshr_hits::switch_cpus2.inst            4                       # number of overall MSHR hits
system.cpu2.icache.overall_mshr_hits::total            4                       # number of overall MSHR hits
system.cpu2.icache.ReadReq_mshr_misses::switch_cpus2.inst           13                       # number of ReadReq MSHR misses
system.cpu2.icache.ReadReq_mshr_misses::total           13                       # number of ReadReq MSHR misses
system.cpu2.icache.demand_mshr_misses::switch_cpus2.inst           13                       # number of demand (read+write) MSHR misses
system.cpu2.icache.demand_mshr_misses::total           13                       # number of demand (read+write) MSHR misses
system.cpu2.icache.overall_mshr_misses::switch_cpus2.inst           13                       # number of overall MSHR misses
system.cpu2.icache.overall_mshr_misses::total           13                       # number of overall MSHR misses
system.cpu2.icache.ReadReq_mshr_miss_latency::switch_cpus2.inst      2883448                       # number of ReadReq MSHR miss cycles
system.cpu2.icache.ReadReq_mshr_miss_latency::total      2883448                       # number of ReadReq MSHR miss cycles
system.cpu2.icache.demand_mshr_miss_latency::switch_cpus2.inst      2883448                       # number of demand (read+write) MSHR miss cycles
system.cpu2.icache.demand_mshr_miss_latency::total      2883448                       # number of demand (read+write) MSHR miss cycles
system.cpu2.icache.overall_mshr_miss_latency::switch_cpus2.inst      2883448                       # number of overall MSHR miss cycles
system.cpu2.icache.overall_mshr_miss_latency::total      2883448                       # number of overall MSHR miss cycles
system.cpu2.icache.ReadReq_mshr_miss_rate::switch_cpus2.inst     0.000001                       # mshr miss rate for ReadReq accesses
system.cpu2.icache.ReadReq_mshr_miss_rate::total     0.000001                       # mshr miss rate for ReadReq accesses
system.cpu2.icache.demand_mshr_miss_rate::switch_cpus2.inst     0.000001                       # mshr miss rate for demand accesses
system.cpu2.icache.demand_mshr_miss_rate::total     0.000001                       # mshr miss rate for demand accesses
system.cpu2.icache.overall_mshr_miss_rate::switch_cpus2.inst     0.000001                       # mshr miss rate for overall accesses
system.cpu2.icache.overall_mshr_miss_rate::total     0.000001                       # mshr miss rate for overall accesses
system.cpu2.icache.ReadReq_avg_mshr_miss_latency::switch_cpus2.inst 221803.692308                       # average ReadReq mshr miss latency
system.cpu2.icache.ReadReq_avg_mshr_miss_latency::total 221803.692308                       # average ReadReq mshr miss latency
system.cpu2.icache.demand_avg_mshr_miss_latency::switch_cpus2.inst 221803.692308                       # average overall mshr miss latency
system.cpu2.icache.demand_avg_mshr_miss_latency::total 221803.692308                       # average overall mshr miss latency
system.cpu2.icache.overall_avg_mshr_miss_latency::switch_cpus2.inst 221803.692308                       # average overall mshr miss latency
system.cpu2.icache.overall_avg_mshr_miss_latency::total 221803.692308                       # average overall mshr miss latency
system.cpu2.icache.no_allocate_misses               0                       # Number of misses that were no-allocate
system.cpu2.dcache.replacements                 78104                       # number of replacements
system.cpu2.dcache.tagsinuse                      256                       # Cycle average of tags in use
system.cpu2.dcache.total_refs               193969953                       # Total number of references to valid blocks.
system.cpu2.dcache.sampled_refs                 78360                       # Sample count of references to valid blocks.
system.cpu2.dcache.avg_refs               2475.369487                       # Average number of references to valid blocks.
system.cpu2.dcache.warmup_cycle                     0                       # Cycle when the warmup percentage was hit.
system.cpu2.dcache.occ_blocks::switch_cpus2.data   230.246780                       # Average occupied blocks per requestor
system.cpu2.dcache.occ_blocks::cpu2.data    25.753220                       # Average occupied blocks per requestor
system.cpu2.dcache.occ_percent::switch_cpus2.data     0.899401                       # Average percentage of cache occupancy
system.cpu2.dcache.occ_percent::cpu2.data     0.100599                       # Average percentage of cache occupancy
system.cpu2.dcache.occ_percent::total               1                       # Average percentage of cache occupancy
system.cpu2.dcache.ReadReq_hits::switch_cpus2.data     10253146                       # number of ReadReq hits
system.cpu2.dcache.ReadReq_hits::total       10253146                       # number of ReadReq hits
system.cpu2.dcache.WriteReq_hits::switch_cpus2.data      7476036                       # number of WriteReq hits
system.cpu2.dcache.WriteReq_hits::total       7476036                       # number of WriteReq hits
system.cpu2.dcache.LoadLockedReq_hits::switch_cpus2.data        22409                       # number of LoadLockedReq hits
system.cpu2.dcache.LoadLockedReq_hits::total        22409                       # number of LoadLockedReq hits
system.cpu2.dcache.StoreCondReq_hits::switch_cpus2.data        17678                       # number of StoreCondReq hits
system.cpu2.dcache.StoreCondReq_hits::total        17678                       # number of StoreCondReq hits
system.cpu2.dcache.demand_hits::switch_cpus2.data     17729182                       # number of demand (read+write) hits
system.cpu2.dcache.demand_hits::total        17729182                       # number of demand (read+write) hits
system.cpu2.dcache.overall_hits::switch_cpus2.data     17729182                       # number of overall hits
system.cpu2.dcache.overall_hits::total       17729182                       # number of overall hits
system.cpu2.dcache.ReadReq_misses::switch_cpus2.data       193078                       # number of ReadReq misses
system.cpu2.dcache.ReadReq_misses::total       193078                       # number of ReadReq misses
system.cpu2.dcache.demand_misses::switch_cpus2.data       193078                       # number of demand (read+write) misses
system.cpu2.dcache.demand_misses::total        193078                       # number of demand (read+write) misses
system.cpu2.dcache.overall_misses::switch_cpus2.data       193078                       # number of overall misses
system.cpu2.dcache.overall_misses::total       193078                       # number of overall misses
system.cpu2.dcache.ReadReq_miss_latency::switch_cpus2.data  21363398230                       # number of ReadReq miss cycles
system.cpu2.dcache.ReadReq_miss_latency::total  21363398230                       # number of ReadReq miss cycles
system.cpu2.dcache.demand_miss_latency::switch_cpus2.data  21363398230                       # number of demand (read+write) miss cycles
system.cpu2.dcache.demand_miss_latency::total  21363398230                       # number of demand (read+write) miss cycles
system.cpu2.dcache.overall_miss_latency::switch_cpus2.data  21363398230                       # number of overall miss cycles
system.cpu2.dcache.overall_miss_latency::total  21363398230                       # number of overall miss cycles
system.cpu2.dcache.ReadReq_accesses::switch_cpus2.data     10446224                       # number of ReadReq accesses(hits+misses)
system.cpu2.dcache.ReadReq_accesses::total     10446224                       # number of ReadReq accesses(hits+misses)
system.cpu2.dcache.WriteReq_accesses::switch_cpus2.data      7476036                       # number of WriteReq accesses(hits+misses)
system.cpu2.dcache.WriteReq_accesses::total      7476036                       # number of WriteReq accesses(hits+misses)
system.cpu2.dcache.LoadLockedReq_accesses::switch_cpus2.data        22409                       # number of LoadLockedReq accesses(hits+misses)
system.cpu2.dcache.LoadLockedReq_accesses::total        22409                       # number of LoadLockedReq accesses(hits+misses)
system.cpu2.dcache.StoreCondReq_accesses::switch_cpus2.data        17678                       # number of StoreCondReq accesses(hits+misses)
system.cpu2.dcache.StoreCondReq_accesses::total        17678                       # number of StoreCondReq accesses(hits+misses)
system.cpu2.dcache.demand_accesses::switch_cpus2.data     17922260                       # number of demand (read+write) accesses
system.cpu2.dcache.demand_accesses::total     17922260                       # number of demand (read+write) accesses
system.cpu2.dcache.overall_accesses::switch_cpus2.data     17922260                       # number of overall (read+write) accesses
system.cpu2.dcache.overall_accesses::total     17922260                       # number of overall (read+write) accesses
system.cpu2.dcache.ReadReq_miss_rate::switch_cpus2.data     0.018483                       # miss rate for ReadReq accesses
system.cpu2.dcache.ReadReq_miss_rate::total     0.018483                       # miss rate for ReadReq accesses
system.cpu2.dcache.demand_miss_rate::switch_cpus2.data     0.010773                       # miss rate for demand accesses
system.cpu2.dcache.demand_miss_rate::total     0.010773                       # miss rate for demand accesses
system.cpu2.dcache.overall_miss_rate::switch_cpus2.data     0.010773                       # miss rate for overall accesses
system.cpu2.dcache.overall_miss_rate::total     0.010773                       # miss rate for overall accesses
system.cpu2.dcache.ReadReq_avg_miss_latency::switch_cpus2.data 110646.465315                       # average ReadReq miss latency
system.cpu2.dcache.ReadReq_avg_miss_latency::total 110646.465315                       # average ReadReq miss latency
system.cpu2.dcache.demand_avg_miss_latency::switch_cpus2.data 110646.465315                       # average overall miss latency
system.cpu2.dcache.demand_avg_miss_latency::total 110646.465315                       # average overall miss latency
system.cpu2.dcache.overall_avg_miss_latency::switch_cpus2.data 110646.465315                       # average overall miss latency
system.cpu2.dcache.overall_avg_miss_latency::total 110646.465315                       # average overall miss latency
system.cpu2.dcache.blocked_cycles::no_mshrs            0                       # number of cycles access was blocked
system.cpu2.dcache.blocked_cycles::no_targets            0                       # number of cycles access was blocked
system.cpu2.dcache.blocked::no_mshrs                0                       # number of cycles access was blocked
system.cpu2.dcache.blocked::no_targets              0                       # number of cycles access was blocked
system.cpu2.dcache.avg_blocked_cycles::no_mshrs          nan                       # average number of cycles each access was blocked
system.cpu2.dcache.avg_blocked_cycles::no_targets          nan                       # average number of cycles each access was blocked
system.cpu2.dcache.fast_writes                      0                       # number of fast writes performed
system.cpu2.dcache.cache_copies                     0                       # number of cache copies performed
system.cpu2.dcache.writebacks::writebacks        21407                       # number of writebacks
system.cpu2.dcache.writebacks::total            21407                       # number of writebacks
system.cpu2.dcache.ReadReq_mshr_hits::switch_cpus2.data       114974                       # number of ReadReq MSHR hits
system.cpu2.dcache.ReadReq_mshr_hits::total       114974                       # number of ReadReq MSHR hits
system.cpu2.dcache.demand_mshr_hits::switch_cpus2.data       114974                       # number of demand (read+write) MSHR hits
system.cpu2.dcache.demand_mshr_hits::total       114974                       # number of demand (read+write) MSHR hits
system.cpu2.dcache.overall_mshr_hits::switch_cpus2.data       114974                       # number of overall MSHR hits
system.cpu2.dcache.overall_mshr_hits::total       114974                       # number of overall MSHR hits
system.cpu2.dcache.ReadReq_mshr_misses::switch_cpus2.data        78104                       # number of ReadReq MSHR misses
system.cpu2.dcache.ReadReq_mshr_misses::total        78104                       # number of ReadReq MSHR misses
system.cpu2.dcache.demand_mshr_misses::switch_cpus2.data        78104                       # number of demand (read+write) MSHR misses
system.cpu2.dcache.demand_mshr_misses::total        78104                       # number of demand (read+write) MSHR misses
system.cpu2.dcache.overall_mshr_misses::switch_cpus2.data        78104                       # number of overall MSHR misses
system.cpu2.dcache.overall_mshr_misses::total        78104                       # number of overall MSHR misses
system.cpu2.dcache.ReadReq_mshr_miss_latency::switch_cpus2.data   7559650957                       # number of ReadReq MSHR miss cycles
system.cpu2.dcache.ReadReq_mshr_miss_latency::total   7559650957                       # number of ReadReq MSHR miss cycles
system.cpu2.dcache.demand_mshr_miss_latency::switch_cpus2.data   7559650957                       # number of demand (read+write) MSHR miss cycles
system.cpu2.dcache.demand_mshr_miss_latency::total   7559650957                       # number of demand (read+write) MSHR miss cycles
system.cpu2.dcache.overall_mshr_miss_latency::switch_cpus2.data   7559650957                       # number of overall MSHR miss cycles
system.cpu2.dcache.overall_mshr_miss_latency::total   7559650957                       # number of overall MSHR miss cycles
system.cpu2.dcache.ReadReq_mshr_miss_rate::switch_cpus2.data     0.007477                       # mshr miss rate for ReadReq accesses
system.cpu2.dcache.ReadReq_mshr_miss_rate::total     0.007477                       # mshr miss rate for ReadReq accesses
system.cpu2.dcache.demand_mshr_miss_rate::switch_cpus2.data     0.004358                       # mshr miss rate for demand accesses
system.cpu2.dcache.demand_mshr_miss_rate::total     0.004358                       # mshr miss rate for demand accesses
system.cpu2.dcache.overall_mshr_miss_rate::switch_cpus2.data     0.004358                       # mshr miss rate for overall accesses
system.cpu2.dcache.overall_mshr_miss_rate::total     0.004358                       # mshr miss rate for overall accesses
system.cpu2.dcache.ReadReq_avg_mshr_miss_latency::switch_cpus2.data 96789.549280                       # average ReadReq mshr miss latency
system.cpu2.dcache.ReadReq_avg_mshr_miss_latency::total 96789.549280                       # average ReadReq mshr miss latency
system.cpu2.dcache.demand_avg_mshr_miss_latency::switch_cpus2.data 96789.549280                       # average overall mshr miss latency
system.cpu2.dcache.demand_avg_mshr_miss_latency::total 96789.549280                       # average overall mshr miss latency
system.cpu2.dcache.overall_avg_mshr_miss_latency::switch_cpus2.data 96789.549280                       # average overall mshr miss latency
system.cpu2.dcache.overall_avg_mshr_miss_latency::total 96789.549280                       # average overall mshr miss latency
system.cpu2.dcache.no_allocate_misses               0                       # Number of misses that were no-allocate

---------- End Simulation Statistics   ----------
