
---------- Begin Simulation Statistics ----------
final_tick                               3000000000000                       # Number of ticks from beginning of simulation (restored from checkpoints and never reset)
host_inst_rate                                 185769                       # Simulator instruction rate (inst/s)
host_mem_usage                              134382552                       # Number of bytes of host memory used
host_op_rate                                   219035                       # Simulator op (including micro ops) rate (op/s)
host_seconds                                 37993.34                       # Real time elapsed on the host
host_tick_rate                               53217899                       # Simulator tick rate (ticks/s)
sim_freq                                 1000000000000                       # Frequency of simulated ticks
sim_insts                                  7057992766                       # Number of instructions simulated
sim_ops                                    8321882355                       # Number of ops (including micro ops) simulated
sim_seconds                                  2.021926                       # Number of seconds simulated
sim_ticks                                2021925967074                       # Number of ticks simulated
system.cpu.committedInsts                           0                       # Number of instructions committed
system.cpu.committedOps                             0                       # Number of ops (including micro ops) committed
system.cpu.dtb.accesses                             0                       # DTB accesses
system.cpu.dtb.align_faults                         0                       # Number of TLB faults due to alignment restrictions
system.cpu.dtb.domain_faults                        0                       # Number of TLB faults due to domain restrictions
system.cpu.dtb.flush_entries                        0                       # Number of entries that have been flushed from TLB
system.cpu.dtb.flush_tlb                            0                       # Number of times complete TLB was flushed
system.cpu.dtb.flush_tlb_asid                       0                       # Number of times TLB was flushed by ASID
system.cpu.dtb.flush_tlb_mva                        0                       # Number of times TLB was flushed by MVA
system.cpu.dtb.flush_tlb_mva_asid                   0                       # Number of times TLB was flushed by MVA & ASID
system.cpu.dtb.hits                                 0                       # DTB hits
system.cpu.dtb.inst_accesses                        0                       # ITB inst accesses
system.cpu.dtb.inst_hits                            0                       # ITB inst hits
system.cpu.dtb.inst_misses                          0                       # ITB inst misses
system.cpu.dtb.misses                               0                       # DTB misses
system.cpu.dtb.perms_faults                         0                       # Number of TLB faults due to permissions restrictions
system.cpu.dtb.prefetch_faults                      0                       # Number of TLB faults due to prefetch
system.cpu.dtb.read_accesses                        0                       # DTB read accesses
system.cpu.dtb.read_hits                            0                       # DTB read hits
system.cpu.dtb.read_misses                          0                       # DTB read misses
system.cpu.dtb.stage2_mmu.stage2_tlb.accesses            0                       # DTB accesses
system.cpu.dtb.stage2_mmu.stage2_tlb.align_faults            0                       # Number of TLB faults due to alignment restrictions
system.cpu.dtb.stage2_mmu.stage2_tlb.domain_faults            0                       # Number of TLB faults due to domain restrictions
system.cpu.dtb.stage2_mmu.stage2_tlb.flush_entries            0                       # Number of entries that have been flushed from TLB
system.cpu.dtb.stage2_mmu.stage2_tlb.flush_tlb            0                       # Number of times complete TLB was flushed
system.cpu.dtb.stage2_mmu.stage2_tlb.flush_tlb_asid            0                       # Number of times TLB was flushed by ASID
system.cpu.dtb.stage2_mmu.stage2_tlb.flush_tlb_mva            0                       # Number of times TLB was flushed by MVA
system.cpu.dtb.stage2_mmu.stage2_tlb.flush_tlb_mva_asid            0                       # Number of times TLB was flushed by MVA & ASID
system.cpu.dtb.stage2_mmu.stage2_tlb.hits            0                       # DTB hits
system.cpu.dtb.stage2_mmu.stage2_tlb.inst_accesses            0                       # ITB inst accesses
system.cpu.dtb.stage2_mmu.stage2_tlb.inst_hits            0                       # ITB inst hits
system.cpu.dtb.stage2_mmu.stage2_tlb.inst_misses            0                       # ITB inst misses
system.cpu.dtb.stage2_mmu.stage2_tlb.misses            0                       # DTB misses
system.cpu.dtb.stage2_mmu.stage2_tlb.perms_faults            0                       # Number of TLB faults due to permissions restrictions
system.cpu.dtb.stage2_mmu.stage2_tlb.prefetch_faults            0                       # Number of TLB faults due to prefetch
system.cpu.dtb.stage2_mmu.stage2_tlb.read_accesses            0                       # DTB read accesses
system.cpu.dtb.stage2_mmu.stage2_tlb.read_hits            0                       # DTB read hits
system.cpu.dtb.stage2_mmu.stage2_tlb.read_misses            0                       # DTB read misses
system.cpu.dtb.stage2_mmu.stage2_tlb.walker.walkRequestOrigin_Requested::Data            0                       # Table walker requests started/completed, data/inst
system.cpu.dtb.stage2_mmu.stage2_tlb.walker.walkRequestOrigin_Requested::Inst            0                       # Table walker requests started/completed, data/inst
system.cpu.dtb.stage2_mmu.stage2_tlb.walker.walkRequestOrigin_Requested::total            0                       # Table walker requests started/completed, data/inst
system.cpu.dtb.stage2_mmu.stage2_tlb.walker.walkRequestOrigin_Completed::Data            0                       # Table walker requests started/completed, data/inst
system.cpu.dtb.stage2_mmu.stage2_tlb.walker.walkRequestOrigin_Completed::Inst            0                       # Table walker requests started/completed, data/inst
system.cpu.dtb.stage2_mmu.stage2_tlb.walker.walkRequestOrigin_Completed::total            0                       # Table walker requests started/completed, data/inst
system.cpu.dtb.stage2_mmu.stage2_tlb.walker.walkRequestOrigin::total            0                       # Table walker requests started/completed, data/inst
system.cpu.dtb.stage2_mmu.stage2_tlb.walker.walks            0                       # Table walker walks requested
system.cpu.dtb.stage2_mmu.stage2_tlb.write_accesses            0                       # DTB write accesses
system.cpu.dtb.stage2_mmu.stage2_tlb.write_hits            0                       # DTB write hits
system.cpu.dtb.stage2_mmu.stage2_tlb.write_misses            0                       # DTB write misses
system.cpu.dtb.walker.walkRequestOrigin_Requested::Data            0                       # Table walker requests started/completed, data/inst
system.cpu.dtb.walker.walkRequestOrigin_Requested::Inst            0                       # Table walker requests started/completed, data/inst
system.cpu.dtb.walker.walkRequestOrigin_Requested::total            0                       # Table walker requests started/completed, data/inst
system.cpu.dtb.walker.walkRequestOrigin_Completed::Data            0                       # Table walker requests started/completed, data/inst
system.cpu.dtb.walker.walkRequestOrigin_Completed::Inst            0                       # Table walker requests started/completed, data/inst
system.cpu.dtb.walker.walkRequestOrigin_Completed::total            0                       # Table walker requests started/completed, data/inst
system.cpu.dtb.walker.walkRequestOrigin::total            0                       # Table walker requests started/completed, data/inst
system.cpu.dtb.walker.walks                         0                       # Table walker walks requested
system.cpu.dtb.write_accesses                       0                       # DTB write accesses
system.cpu.dtb.write_hits                           0                       # DTB write hits
system.cpu.dtb.write_misses                         0                       # DTB write misses
system.cpu.idle_fraction                            0                       # Percentage of idle cycles
system.cpu.itb.accesses                             0                       # DTB accesses
system.cpu.itb.align_faults                         0                       # Number of TLB faults due to alignment restrictions
system.cpu.itb.domain_faults                        0                       # Number of TLB faults due to domain restrictions
system.cpu.itb.flush_entries                        0                       # Number of entries that have been flushed from TLB
system.cpu.itb.flush_tlb                            0                       # Number of times complete TLB was flushed
system.cpu.itb.flush_tlb_asid                       0                       # Number of times TLB was flushed by ASID
system.cpu.itb.flush_tlb_mva                        0                       # Number of times TLB was flushed by MVA
system.cpu.itb.flush_tlb_mva_asid                   0                       # Number of times TLB was flushed by MVA & ASID
system.cpu.itb.hits                                 0                       # DTB hits
system.cpu.itb.inst_accesses                        0                       # ITB inst accesses
system.cpu.itb.inst_hits                            0                       # ITB inst hits
system.cpu.itb.inst_misses                          0                       # ITB inst misses
system.cpu.itb.misses                               0                       # DTB misses
system.cpu.itb.perms_faults                         0                       # Number of TLB faults due to permissions restrictions
system.cpu.itb.prefetch_faults                      0                       # Number of TLB faults due to prefetch
system.cpu.itb.read_accesses                        0                       # DTB read accesses
system.cpu.itb.read_hits                            0                       # DTB read hits
system.cpu.itb.read_misses                          0                       # DTB read misses
system.cpu.itb.stage2_mmu.stage2_tlb.accesses            0                       # DTB accesses
system.cpu.itb.stage2_mmu.stage2_tlb.align_faults            0                       # Number of TLB faults due to alignment restrictions
system.cpu.itb.stage2_mmu.stage2_tlb.domain_faults            0                       # Number of TLB faults due to domain restrictions
system.cpu.itb.stage2_mmu.stage2_tlb.flush_entries            0                       # Number of entries that have been flushed from TLB
system.cpu.itb.stage2_mmu.stage2_tlb.flush_tlb            0                       # Number of times complete TLB was flushed
system.cpu.itb.stage2_mmu.stage2_tlb.flush_tlb_asid            0                       # Number of times TLB was flushed by ASID
system.cpu.itb.stage2_mmu.stage2_tlb.flush_tlb_mva            0                       # Number of times TLB was flushed by MVA
system.cpu.itb.stage2_mmu.stage2_tlb.flush_tlb_mva_asid            0                       # Number of times TLB was flushed by MVA & ASID
system.cpu.itb.stage2_mmu.stage2_tlb.hits            0                       # DTB hits
system.cpu.itb.stage2_mmu.stage2_tlb.inst_accesses            0                       # ITB inst accesses
system.cpu.itb.stage2_mmu.stage2_tlb.inst_hits            0                       # ITB inst hits
system.cpu.itb.stage2_mmu.stage2_tlb.inst_misses            0                       # ITB inst misses
system.cpu.itb.stage2_mmu.stage2_tlb.misses            0                       # DTB misses
system.cpu.itb.stage2_mmu.stage2_tlb.perms_faults            0                       # Number of TLB faults due to permissions restrictions
system.cpu.itb.stage2_mmu.stage2_tlb.prefetch_faults            0                       # Number of TLB faults due to prefetch
system.cpu.itb.stage2_mmu.stage2_tlb.read_accesses            0                       # DTB read accesses
system.cpu.itb.stage2_mmu.stage2_tlb.read_hits            0                       # DTB read hits
system.cpu.itb.stage2_mmu.stage2_tlb.read_misses            0                       # DTB read misses
system.cpu.itb.stage2_mmu.stage2_tlb.walker.walkRequestOrigin_Requested::Data            0                       # Table walker requests started/completed, data/inst
system.cpu.itb.stage2_mmu.stage2_tlb.walker.walkRequestOrigin_Requested::Inst            0                       # Table walker requests started/completed, data/inst
system.cpu.itb.stage2_mmu.stage2_tlb.walker.walkRequestOrigin_Requested::total            0                       # Table walker requests started/completed, data/inst
system.cpu.itb.stage2_mmu.stage2_tlb.walker.walkRequestOrigin_Completed::Data            0                       # Table walker requests started/completed, data/inst
system.cpu.itb.stage2_mmu.stage2_tlb.walker.walkRequestOrigin_Completed::Inst            0                       # Table walker requests started/completed, data/inst
system.cpu.itb.stage2_mmu.stage2_tlb.walker.walkRequestOrigin_Completed::total            0                       # Table walker requests started/completed, data/inst
system.cpu.itb.stage2_mmu.stage2_tlb.walker.walkRequestOrigin::total            0                       # Table walker requests started/completed, data/inst
system.cpu.itb.stage2_mmu.stage2_tlb.walker.walks            0                       # Table walker walks requested
system.cpu.itb.stage2_mmu.stage2_tlb.write_accesses            0                       # DTB write accesses
system.cpu.itb.stage2_mmu.stage2_tlb.write_hits            0                       # DTB write hits
system.cpu.itb.stage2_mmu.stage2_tlb.write_misses            0                       # DTB write misses
system.cpu.itb.walker.walkRequestOrigin_Requested::Data            0                       # Table walker requests started/completed, data/inst
system.cpu.itb.walker.walkRequestOrigin_Requested::Inst            0                       # Table walker requests started/completed, data/inst
system.cpu.itb.walker.walkRequestOrigin_Requested::total            0                       # Table walker requests started/completed, data/inst
system.cpu.itb.walker.walkRequestOrigin_Completed::Data            0                       # Table walker requests started/completed, data/inst
system.cpu.itb.walker.walkRequestOrigin_Completed::Inst            0                       # Table walker requests started/completed, data/inst
system.cpu.itb.walker.walkRequestOrigin_Completed::total            0                       # Table walker requests started/completed, data/inst
system.cpu.itb.walker.walkRequestOrigin::total            0                       # Table walker requests started/completed, data/inst
system.cpu.itb.walker.walks                         0                       # Table walker walks requested
system.cpu.itb.write_accesses                       0                       # DTB write accesses
system.cpu.itb.write_hits                           0                       # DTB write hits
system.cpu.itb.write_misses                         0                       # DTB write misses
system.cpu.not_idle_fraction                        1                       # Percentage of non-idle cycles
system.cpu.numCycles                                0                       # number of cpu cycles simulated
system.cpu.numWorkItemsCompleted                    0                       # number of work items this cpu completed
system.cpu.numWorkItemsStarted                      0                       # number of work items this cpu started
system.cpu.num_busy_cycles                          0                       # Number of busy cycles
system.cpu.num_conditional_control_insts            0                       # number of instructions that are conditional controls
system.cpu.num_fp_alu_accesses                      0                       # Number of float alu accesses
system.cpu.num_fp_insts                             0                       # number of float instructions
system.cpu.num_fp_register_reads                    0                       # number of times the floating registers were read
system.cpu.num_fp_register_writes                   0                       # number of times the floating registers were written
system.cpu.num_func_calls                           0                       # number of times a function call or return occured
system.cpu.num_idle_cycles                          0                       # Number of idle cycles
system.cpu.num_int_alu_accesses                     0                       # Number of integer alu accesses
system.cpu.num_int_insts                            0                       # number of integer instructions
system.cpu.num_int_register_reads                   0                       # number of times the integer registers were read
system.cpu.num_int_register_writes                  0                       # number of times the integer registers were written
system.cpu.num_load_insts                           0                       # Number of load instructions
system.cpu.num_mem_refs                             0                       # number of memory refs
system.cpu.num_store_insts                          0                       # Number of store instructions
system.cpu.num_vec_alu_accesses                     0                       # Number of vector alu accesses
system.cpu.num_vec_insts                            0                       # number of vector instructions
system.cpu.num_vec_register_reads                   0                       # number of times the vector registers were read
system.cpu.num_vec_register_writes                  0                       # number of times the vector registers were written
system.cpu.op_class::No_OpClass                     0                       # Class of executed instruction
system.cpu.op_class::IntAlu                         0                       # Class of executed instruction
system.cpu.op_class::IntMult                        0                       # Class of executed instruction
system.cpu.op_class::IntDiv                         0                       # Class of executed instruction
system.cpu.op_class::FloatAdd                       0                       # Class of executed instruction
system.cpu.op_class::FloatCmp                       0                       # Class of executed instruction
system.cpu.op_class::FloatCvt                       0                       # Class of executed instruction
system.cpu.op_class::FloatMult                      0                       # Class of executed instruction
system.cpu.op_class::FloatMultAcc                   0                       # Class of executed instruction
system.cpu.op_class::FloatDiv                       0                       # Class of executed instruction
system.cpu.op_class::FloatMisc                      0                       # Class of executed instruction
system.cpu.op_class::FloatSqrt                      0                       # Class of executed instruction
system.cpu.op_class::SimdAdd                        0                       # Class of executed instruction
system.cpu.op_class::SimdAddAcc                     0                       # Class of executed instruction
system.cpu.op_class::SimdAlu                        0                       # Class of executed instruction
system.cpu.op_class::SimdCmp                        0                       # Class of executed instruction
system.cpu.op_class::SimdCvt                        0                       # Class of executed instruction
system.cpu.op_class::SimdMisc                       0                       # Class of executed instruction
system.cpu.op_class::SimdMult                       0                       # Class of executed instruction
system.cpu.op_class::SimdMultAcc                    0                       # Class of executed instruction
system.cpu.op_class::SimdShift                      0                       # Class of executed instruction
system.cpu.op_class::SimdShiftAcc                   0                       # Class of executed instruction
system.cpu.op_class::SimdDiv                        0                       # Class of executed instruction
system.cpu.op_class::SimdSqrt                       0                       # Class of executed instruction
system.cpu.op_class::SimdFloatAdd                   0                       # Class of executed instruction
system.cpu.op_class::SimdFloatAlu                   0                       # Class of executed instruction
system.cpu.op_class::SimdFloatCmp                   0                       # Class of executed instruction
system.cpu.op_class::SimdFloatCvt                   0                       # Class of executed instruction
system.cpu.op_class::SimdFloatDiv                   0                       # Class of executed instruction
system.cpu.op_class::SimdFloatMisc                  0                       # Class of executed instruction
system.cpu.op_class::SimdFloatMult                  0                       # Class of executed instruction
system.cpu.op_class::SimdFloatMultAcc               0                       # Class of executed instruction
system.cpu.op_class::SimdFloatSqrt                  0                       # Class of executed instruction
system.cpu.op_class::SimdReduceAdd                  0                       # Class of executed instruction
system.cpu.op_class::SimdReduceAlu                  0                       # Class of executed instruction
system.cpu.op_class::SimdReduceCmp                  0                       # Class of executed instruction
system.cpu.op_class::SimdFloatReduceAdd             0                       # Class of executed instruction
system.cpu.op_class::SimdFloatReduceCmp             0                       # Class of executed instruction
system.cpu.op_class::SimdAes                        0                       # Class of executed instruction
system.cpu.op_class::SimdAesMix                     0                       # Class of executed instruction
system.cpu.op_class::SimdSha1Hash                   0                       # Class of executed instruction
system.cpu.op_class::SimdSha1Hash2                  0                       # Class of executed instruction
system.cpu.op_class::SimdSha256Hash                 0                       # Class of executed instruction
system.cpu.op_class::SimdSha256Hash2                0                       # Class of executed instruction
system.cpu.op_class::SimdShaSigma2                  0                       # Class of executed instruction
system.cpu.op_class::SimdShaSigma3                  0                       # Class of executed instruction
system.cpu.op_class::SimdPredAlu                    0                       # Class of executed instruction
system.cpu.op_class::MemRead                        0                       # Class of executed instruction
system.cpu.op_class::MemWrite                       0                       # Class of executed instruction
system.cpu.op_class::FloatMemRead                   0                       # Class of executed instruction
system.cpu.op_class::FloatMemWrite                  0                       # Class of executed instruction
system.cpu.op_class::IprAccess                      0                       # Class of executed instruction
system.cpu.op_class::InstPrefetch                   0                       # Class of executed instruction
system.cpu.op_class::total                          0                       # Class of executed instruction
system.cpu.workload.numSyscalls                   349                       # Number of system calls
system.membus.snoop_filter.hit_multi_requests            0                       # Number of requests hitting in the snoop filter with multiple (>1) holders of the requested data.
system.membus.snoop_filter.hit_multi_snoops            0                       # Number of snoops hitting in the snoop filter with multiple (>1) holders of the requested data.
system.membus.snoop_filter.hit_single_requests     10259252                       # Number of requests hitting in the snoop filter with a single holder of the requested data.
system.membus.snoop_filter.hit_single_snoops            0                       # Number of snoops hitting in the snoop filter with a single holder of the requested data.
system.membus.snoop_filter.tot_requests      20518499                       # Total number of requests made to the snoop filter.
system.membus.snoop_filter.tot_snoops               0                       # Total number of snoops made to the snoop filter.
system.switch_cpus.branchPred.BTBCorrect            0                       # Number of correct BTB predictions (this stat may not work properly.
system.switch_cpus.branchPred.BTBHitPct     46.124265                       # BTB Hit Percentage
system.switch_cpus.branchPred.BTBHits       411613951                       # Number of BTB hits
system.switch_cpus.branchPred.BTBLookups    892402189                       # Number of BTB lookups
system.switch_cpus.branchPred.RASInCorrect            4                       # Number of incorrect RAS predictions.
system.switch_cpus.branchPred.condIncorrect      1802276                       # Number of conditional branches incorrect
system.switch_cpus.branchPred.condPredicted    797900142                       # Number of conditional branches predicted
system.switch_cpus.branchPred.indirectHits     23409644                       # Number of indirect target hits.
system.switch_cpus.branchPred.indirectLookups     23412759                       # Number of indirect predictor lookups.
system.switch_cpus.branchPred.indirectMisses         3115                       # Number of indirect misses.
system.switch_cpus.branchPred.lookups      1024388978                       # Number of BP lookups
system.switch_cpus.branchPred.usedRAS        86171269                       # Number of times the RAS was used to get a target.
system.switch_cpus.branchPredindirectMispredicted           46                       # Number of mispredicted indirect branches.
system.switch_cpus.cc_regfile_reads        1737529197                       # number of cc regfile reads
system.switch_cpus.cc_regfile_writes       1636846275                       # number of cc regfile writes
system.switch_cpus.commit.amos                      0                       # Number of atomic instructions committed
system.switch_cpus.commit.branchMispredicts      1444614                       # The number of times a branch was mispredicted
system.switch_cpus.commit.branches         1008888566                       # Number of branches committed
system.switch_cpus.commit.bw_lim_events     369881369                       # number cycles where commit BW limit reached
system.switch_cpus.commit.commitNonSpecStalls     51438669                       # The number of times commit has been forced to stall to communicate backwards
system.switch_cpus.commit.commitSquashedInsts     31322373                       # The number of squashed insts skipped by commit
system.switch_cpus.commit.committedInsts   5057992765                       # Number of instructions committed
system.switch_cpus.commit.committedOps     5978481632                       # Number of ops (including micro ops) committed
system.switch_cpus.commit.committed_per_cycle::samples   4844141192                       # Number of insts commited each cycle
system.switch_cpus.commit.committed_per_cycle::mean     1.234168                       # Number of insts commited each cycle
system.switch_cpus.commit.committed_per_cycle::stdev     2.397088                       # Number of insts commited each cycle
system.switch_cpus.commit.committed_per_cycle::underflows            0      0.00%      0.00% # Number of insts commited each cycle
system.switch_cpus.commit.committed_per_cycle::0   3333599461     68.82%     68.82% # Number of insts commited each cycle
system.switch_cpus.commit.committed_per_cycle::1    392723630      8.11%     76.92% # Number of insts commited each cycle
system.switch_cpus.commit.committed_per_cycle::2    304326376      6.28%     83.21% # Number of insts commited each cycle
system.switch_cpus.commit.committed_per_cycle::3     90303224      1.86%     85.07% # Number of insts commited each cycle
system.switch_cpus.commit.committed_per_cycle::4    191825005      3.96%     89.03% # Number of insts commited each cycle
system.switch_cpus.commit.committed_per_cycle::5     46472533      0.96%     89.99% # Number of insts commited each cycle
system.switch_cpus.commit.committed_per_cycle::6     57585217      1.19%     91.18% # Number of insts commited each cycle
system.switch_cpus.commit.committed_per_cycle::7     57424377      1.19%     92.36% # Number of insts commited each cycle
system.switch_cpus.commit.committed_per_cycle::8    369881369      7.64%    100.00% # Number of insts commited each cycle
system.switch_cpus.commit.committed_per_cycle::overflows            0      0.00%    100.00% # Number of insts commited each cycle
system.switch_cpus.commit.committed_per_cycle::min_value            0                       # Number of insts commited each cycle
system.switch_cpus.commit.committed_per_cycle::max_value            8                       # Number of insts commited each cycle
system.switch_cpus.commit.committed_per_cycle::total   4844141192                       # Number of insts commited each cycle
system.switch_cpus.commit.fp_insts                  0                       # Number of committed floating point instructions.
system.switch_cpus.commit.function_calls     85918232                       # Number of function calls committed.
system.switch_cpus.commit.int_insts        5393835289                       # Number of committed integer instructions.
system.switch_cpus.commit.loads            1200511406                       # Number of loads committed
system.switch_cpus.commit.membars            57153107                       # Number of memory barriers committed
system.switch_cpus.commit.op_class_0::No_OpClass            0      0.00%      0.00% # Class of committed instruction
system.switch_cpus.commit.op_class_0::IntAlu   3592818908     60.10%     60.10% # Class of committed instruction
system.switch_cpus.commit.op_class_0::IntMult    211484552      3.54%     63.63% # Class of committed instruction
system.switch_cpus.commit.op_class_0::IntDiv            0      0.00%     63.63% # Class of committed instruction
system.switch_cpus.commit.op_class_0::FloatAdd            0      0.00%     63.63% # Class of committed instruction
system.switch_cpus.commit.op_class_0::FloatCmp            0      0.00%     63.63% # Class of committed instruction
system.switch_cpus.commit.op_class_0::FloatCvt            0      0.00%     63.63% # Class of committed instruction
system.switch_cpus.commit.op_class_0::FloatMult            0      0.00%     63.63% # Class of committed instruction
system.switch_cpus.commit.op_class_0::FloatMultAcc            0      0.00%     63.63% # Class of committed instruction
system.switch_cpus.commit.op_class_0::FloatDiv            0      0.00%     63.63% # Class of committed instruction
system.switch_cpus.commit.op_class_0::FloatMisc            0      0.00%     63.63% # Class of committed instruction
system.switch_cpus.commit.op_class_0::FloatSqrt            0      0.00%     63.63% # Class of committed instruction
system.switch_cpus.commit.op_class_0::SimdAdd            0      0.00%     63.63% # Class of committed instruction
system.switch_cpus.commit.op_class_0::SimdAddAcc            0      0.00%     63.63% # Class of committed instruction
system.switch_cpus.commit.op_class_0::SimdAlu            0      0.00%     63.63% # Class of committed instruction
system.switch_cpus.commit.op_class_0::SimdCmp            0      0.00%     63.63% # Class of committed instruction
system.switch_cpus.commit.op_class_0::SimdCvt            0      0.00%     63.63% # Class of committed instruction
system.switch_cpus.commit.op_class_0::SimdMisc       357198      0.01%     63.64% # Class of committed instruction
system.switch_cpus.commit.op_class_0::SimdMult            0      0.00%     63.64% # Class of committed instruction
system.switch_cpus.commit.op_class_0::SimdMultAcc            0      0.00%     63.64% # Class of committed instruction
system.switch_cpus.commit.op_class_0::SimdShift            0      0.00%     63.64% # Class of committed instruction
system.switch_cpus.commit.op_class_0::SimdShiftAcc            0      0.00%     63.64% # Class of committed instruction
system.switch_cpus.commit.op_class_0::SimdDiv            0      0.00%     63.64% # Class of committed instruction
system.switch_cpus.commit.op_class_0::SimdSqrt            0      0.00%     63.64% # Class of committed instruction
system.switch_cpus.commit.op_class_0::SimdFloatAdd            0      0.00%     63.64% # Class of committed instruction
system.switch_cpus.commit.op_class_0::SimdFloatAlu            0      0.00%     63.64% # Class of committed instruction
system.switch_cpus.commit.op_class_0::SimdFloatCmp            0      0.00%     63.64% # Class of committed instruction
system.switch_cpus.commit.op_class_0::SimdFloatCvt            0      0.00%     63.64% # Class of committed instruction
system.switch_cpus.commit.op_class_0::SimdFloatDiv            0      0.00%     63.64% # Class of committed instruction
system.switch_cpus.commit.op_class_0::SimdFloatMisc            0      0.00%     63.64% # Class of committed instruction
system.switch_cpus.commit.op_class_0::SimdFloatMult            0      0.00%     63.64% # Class of committed instruction
system.switch_cpus.commit.op_class_0::SimdFloatMultAcc            0      0.00%     63.64% # Class of committed instruction
system.switch_cpus.commit.op_class_0::SimdFloatSqrt            0      0.00%     63.64% # Class of committed instruction
system.switch_cpus.commit.op_class_0::SimdReduceAdd            0      0.00%     63.64% # Class of committed instruction
system.switch_cpus.commit.op_class_0::SimdReduceAlu            0      0.00%     63.64% # Class of committed instruction
system.switch_cpus.commit.op_class_0::SimdReduceCmp            0      0.00%     63.64% # Class of committed instruction
system.switch_cpus.commit.op_class_0::SimdFloatReduceAdd            0      0.00%     63.64% # Class of committed instruction
system.switch_cpus.commit.op_class_0::SimdFloatReduceCmp            0      0.00%     63.64% # Class of committed instruction
system.switch_cpus.commit.op_class_0::SimdAes            0      0.00%     63.64% # Class of committed instruction
system.switch_cpus.commit.op_class_0::SimdAesMix            0      0.00%     63.64% # Class of committed instruction
system.switch_cpus.commit.op_class_0::SimdSha1Hash            0      0.00%     63.64% # Class of committed instruction
system.switch_cpus.commit.op_class_0::SimdSha1Hash2            0      0.00%     63.64% # Class of committed instruction
system.switch_cpus.commit.op_class_0::SimdSha256Hash            0      0.00%     63.64% # Class of committed instruction
system.switch_cpus.commit.op_class_0::SimdSha256Hash2            0      0.00%     63.64% # Class of committed instruction
system.switch_cpus.commit.op_class_0::SimdShaSigma2            0      0.00%     63.64% # Class of committed instruction
system.switch_cpus.commit.op_class_0::SimdShaSigma3            0      0.00%     63.64% # Class of committed instruction
system.switch_cpus.commit.op_class_0::SimdPredAlu            0      0.00%     63.64% # Class of committed instruction
system.switch_cpus.commit.op_class_0::MemRead   1200511406     20.08%     83.72% # Class of committed instruction
system.switch_cpus.commit.op_class_0::MemWrite    973309568     16.28%    100.00% # Class of committed instruction
system.switch_cpus.commit.op_class_0::FloatMemRead            0      0.00%    100.00% # Class of committed instruction
system.switch_cpus.commit.op_class_0::FloatMemWrite            0      0.00%    100.00% # Class of committed instruction
system.switch_cpus.commit.op_class_0::IprAccess            0      0.00%    100.00% # Class of committed instruction
system.switch_cpus.commit.op_class_0::InstPrefetch            0      0.00%    100.00% # Class of committed instruction
system.switch_cpus.commit.op_class_0::total   5978481632                       # Class of committed instruction
system.switch_cpus.commit.refs             2173820974                       # Number of memory references committed
system.switch_cpus.commit.swp_count                 0                       # Number of s/w prefetches committed
system.switch_cpus.commit.vec_insts         192006194                       # Number of committed Vector instructions.
system.switch_cpus.committedInsts          5057992765                       # Number of Instructions Simulated
system.switch_cpus.committedOps            5978481632                       # Number of Ops (including micro ops) Simulated
system.switch_cpus.cpi                       0.958630                       # CPI: Cycles Per Instruction
system.switch_cpus.cpi_total                 0.958630                       # CPI: Total CPI of All Threads
system.switch_cpus.decode.BlockedCycles    3688484284                       # Number of cycles decode is blocked
system.switch_cpus.decode.BranchMispred        536265                       # Number of times decode detected a branch misprediction
system.switch_cpus.decode.BranchResolved    410507448                       # Number of times decode resolved a branch
system.switch_cpus.decode.DecodedInsts     6028011099                       # Number of instructions handled by decode
system.switch_cpus.decode.IdleCycles        265134189                       # Number of cycles decode is idle
system.switch_cpus.decode.RunCycles         677121052                       # Number of cycles decode is running
system.switch_cpus.decode.SquashCycles        1507919                       # Number of cycles decode is squashing
system.switch_cpus.decode.SquashedInsts         57459                       # Number of squashed instructions handled by decode
system.switch_cpus.decode.UnblockCycles     216495289                       # Number of cycles decode is unblocking
system.switch_cpus.dtb.accesses                     0                       # DTB accesses
system.switch_cpus.dtb.align_faults                 0                       # Number of TLB faults due to alignment restrictions
system.switch_cpus.dtb.domain_faults                0                       # Number of TLB faults due to domain restrictions
system.switch_cpus.dtb.flush_entries                0                       # Number of entries that have been flushed from TLB
system.switch_cpus.dtb.flush_tlb                    0                       # Number of times complete TLB was flushed
system.switch_cpus.dtb.flush_tlb_asid               0                       # Number of times TLB was flushed by ASID
system.switch_cpus.dtb.flush_tlb_mva                0                       # Number of times TLB was flushed by MVA
system.switch_cpus.dtb.flush_tlb_mva_asid            0                       # Number of times TLB was flushed by MVA & ASID
system.switch_cpus.dtb.hits                         0                       # DTB hits
system.switch_cpus.dtb.inst_accesses                0                       # ITB inst accesses
system.switch_cpus.dtb.inst_hits                    0                       # ITB inst hits
system.switch_cpus.dtb.inst_misses                  0                       # ITB inst misses
system.switch_cpus.dtb.misses                       0                       # DTB misses
system.switch_cpus.dtb.perms_faults                 0                       # Number of TLB faults due to permissions restrictions
system.switch_cpus.dtb.prefetch_faults              0                       # Number of TLB faults due to prefetch
system.switch_cpus.dtb.read_accesses                0                       # DTB read accesses
system.switch_cpus.dtb.read_hits                    0                       # DTB read hits
system.switch_cpus.dtb.read_misses                  0                       # DTB read misses
system.switch_cpus.dtb.stage2_mmu.stage2_tlb.accesses            0                       # DTB accesses
system.switch_cpus.dtb.stage2_mmu.stage2_tlb.align_faults            0                       # Number of TLB faults due to alignment restrictions
system.switch_cpus.dtb.stage2_mmu.stage2_tlb.domain_faults            0                       # Number of TLB faults due to domain restrictions
system.switch_cpus.dtb.stage2_mmu.stage2_tlb.flush_entries            0                       # Number of entries that have been flushed from TLB
system.switch_cpus.dtb.stage2_mmu.stage2_tlb.flush_tlb            0                       # Number of times complete TLB was flushed
system.switch_cpus.dtb.stage2_mmu.stage2_tlb.flush_tlb_asid            0                       # Number of times TLB was flushed by ASID
system.switch_cpus.dtb.stage2_mmu.stage2_tlb.flush_tlb_mva            0                       # Number of times TLB was flushed by MVA
system.switch_cpus.dtb.stage2_mmu.stage2_tlb.flush_tlb_mva_asid            0                       # Number of times TLB was flushed by MVA & ASID
system.switch_cpus.dtb.stage2_mmu.stage2_tlb.hits            0                       # DTB hits
system.switch_cpus.dtb.stage2_mmu.stage2_tlb.inst_accesses            0                       # ITB inst accesses
system.switch_cpus.dtb.stage2_mmu.stage2_tlb.inst_hits            0                       # ITB inst hits
system.switch_cpus.dtb.stage2_mmu.stage2_tlb.inst_misses            0                       # ITB inst misses
system.switch_cpus.dtb.stage2_mmu.stage2_tlb.misses            0                       # DTB misses
system.switch_cpus.dtb.stage2_mmu.stage2_tlb.perms_faults            0                       # Number of TLB faults due to permissions restrictions
system.switch_cpus.dtb.stage2_mmu.stage2_tlb.prefetch_faults            0                       # Number of TLB faults due to prefetch
system.switch_cpus.dtb.stage2_mmu.stage2_tlb.read_accesses            0                       # DTB read accesses
system.switch_cpus.dtb.stage2_mmu.stage2_tlb.read_hits            0                       # DTB read hits
system.switch_cpus.dtb.stage2_mmu.stage2_tlb.read_misses            0                       # DTB read misses
system.switch_cpus.dtb.stage2_mmu.stage2_tlb.walker.walkRequestOrigin_Requested::Data            0                       # Table walker requests started/completed, data/inst
system.switch_cpus.dtb.stage2_mmu.stage2_tlb.walker.walkRequestOrigin_Requested::Inst            0                       # Table walker requests started/completed, data/inst
system.switch_cpus.dtb.stage2_mmu.stage2_tlb.walker.walkRequestOrigin_Requested::total            0                       # Table walker requests started/completed, data/inst
system.switch_cpus.dtb.stage2_mmu.stage2_tlb.walker.walkRequestOrigin_Completed::Data            0                       # Table walker requests started/completed, data/inst
system.switch_cpus.dtb.stage2_mmu.stage2_tlb.walker.walkRequestOrigin_Completed::Inst            0                       # Table walker requests started/completed, data/inst
system.switch_cpus.dtb.stage2_mmu.stage2_tlb.walker.walkRequestOrigin_Completed::total            0                       # Table walker requests started/completed, data/inst
system.switch_cpus.dtb.stage2_mmu.stage2_tlb.walker.walkRequestOrigin::total            0                       # Table walker requests started/completed, data/inst
system.switch_cpus.dtb.stage2_mmu.stage2_tlb.walker.walks            0                       # Table walker walks requested
system.switch_cpus.dtb.stage2_mmu.stage2_tlb.write_accesses            0                       # DTB write accesses
system.switch_cpus.dtb.stage2_mmu.stage2_tlb.write_hits            0                       # DTB write hits
system.switch_cpus.dtb.stage2_mmu.stage2_tlb.write_misses            0                       # DTB write misses
system.switch_cpus.dtb.walker.walkRequestOrigin_Requested::Data            0                       # Table walker requests started/completed, data/inst
system.switch_cpus.dtb.walker.walkRequestOrigin_Requested::Inst            0                       # Table walker requests started/completed, data/inst
system.switch_cpus.dtb.walker.walkRequestOrigin_Requested::total            0                       # Table walker requests started/completed, data/inst
system.switch_cpus.dtb.walker.walkRequestOrigin_Completed::Data            0                       # Table walker requests started/completed, data/inst
system.switch_cpus.dtb.walker.walkRequestOrigin_Completed::Inst            0                       # Table walker requests started/completed, data/inst
system.switch_cpus.dtb.walker.walkRequestOrigin_Completed::total            0                       # Table walker requests started/completed, data/inst
system.switch_cpus.dtb.walker.walkRequestOrigin::total            0                       # Table walker requests started/completed, data/inst
system.switch_cpus.dtb.walker.walks                 0                       # Table walker walks requested
system.switch_cpus.dtb.write_accesses               0                       # DTB write accesses
system.switch_cpus.dtb.write_hits                   0                       # DTB write hits
system.switch_cpus.dtb.write_misses                 0                       # DTB write misses
system.switch_cpus.fetch.Branches          1024388978                       # Number of branches that fetch encountered
system.switch_cpus.fetch.CacheLines         600260143                       # Number of cache lines fetched
system.switch_cpus.fetch.Cycles            4245140837                       # Number of cycles fetch has run and was not squashing or blocked
system.switch_cpus.fetch.IcacheSquashes        205665                       # Number of outstanding Icache misses that were squashed
system.switch_cpus.fetch.IcacheWaitRetryStallCycles           22                       # Number of stall cycles due to full MSHR
system.switch_cpus.fetch.Insts             5130554924                       # Number of instructions fetch has processed
system.switch_cpus.fetch.MiscStallCycles            2                       # Number of cycles fetch has spent waiting on interrupts, or bad addresses, or out of MSHRs
system.switch_cpus.fetch.SquashCycles         3731162                       # Number of cycles fetch has spent squashing
system.switch_cpus.fetch.branchRate          0.211269                       # Number of branch fetches per cycle
system.switch_cpus.fetch.icacheStallCycles    601736297                       # Number of cycles fetch is stalled on an Icache miss
system.switch_cpus.fetch.predictedBranches    521194864                       # Number of branches that fetch has predicted taken
system.switch_cpus.fetch.rate                1.058121                       # Number of inst fetches per cycle
system.switch_cpus.fetch.rateDist::samples   4848742739                       # Number of instructions fetched each cycle (Total)
system.switch_cpus.fetch.rateDist::mean      1.249449                       # Number of instructions fetched each cycle (Total)
system.switch_cpus.fetch.rateDist::stdev     2.574082                       # Number of instructions fetched each cycle (Total)
system.switch_cpus.fetch.rateDist::underflows            0      0.00%      0.00% # Number of instructions fetched each cycle (Total)
system.switch_cpus.fetch.rateDist::0       3656921876     75.42%     75.42% # Number of instructions fetched each cycle (Total)
system.switch_cpus.fetch.rateDist::1        214891954      4.43%     79.85% # Number of instructions fetched each cycle (Total)
system.switch_cpus.fetch.rateDist::2         88760066      1.83%     81.68% # Number of instructions fetched each cycle (Total)
system.switch_cpus.fetch.rateDist::3        104268672      2.15%     83.83% # Number of instructions fetched each cycle (Total)
system.switch_cpus.fetch.rateDist::4         92094068      1.90%     85.73% # Number of instructions fetched each cycle (Total)
system.switch_cpus.fetch.rateDist::5         64896713      1.34%     87.07% # Number of instructions fetched each cycle (Total)
system.switch_cpus.fetch.rateDist::6        148364767      3.06%     90.13% # Number of instructions fetched each cycle (Total)
system.switch_cpus.fetch.rateDist::7         58366912      1.20%     91.33% # Number of instructions fetched each cycle (Total)
system.switch_cpus.fetch.rateDist::8        420177711      8.67%    100.00% # Number of instructions fetched each cycle (Total)
system.switch_cpus.fetch.rateDist::overflows            0      0.00%    100.00% # Number of instructions fetched each cycle (Total)
system.switch_cpus.fetch.rateDist::min_value            0                       # Number of instructions fetched each cycle (Total)
system.switch_cpus.fetch.rateDist::max_value            8                       # Number of instructions fetched each cycle (Total)
system.switch_cpus.fetch.rateDist::total   4848742739                       # Number of instructions fetched each cycle (Total)
system.switch_cpus.idleCycles                     587                       # Total number of cycles that the CPU has spent unscheduled due to idling
system.switch_cpus.iew.branchMispredicts      1989558                       # Number of branch mispredicts detected at execute
system.switch_cpus.iew.exec_branches       1011210170                       # Number of branches executed
system.switch_cpus.iew.exec_nop                     0                       # number of nop insts executed
system.switch_cpus.iew.exec_rate             1.260073                       # Inst execution rate
system.switch_cpus.iew.exec_refs           2294830775                       # number of memory reference insts executed
system.switch_cpus.iew.exec_stores          974905436                       # Number of stores executed
system.switch_cpus.iew.exec_swp                     0                       # number of swp insts executed
system.switch_cpus.iew.iewBlockCycles         3094063                       # Number of cycles IEW is blocking
system.switch_cpus.iew.iewDispLoadInsts    1206571353                       # Number of dispatched load instructions
system.switch_cpus.iew.iewDispNonSpecInsts     51618326                       # Number of dispatched non-speculative instructions
system.switch_cpus.iew.iewDispSquashedInsts       192283                       # Number of squashed instructions skipped by dispatch
system.switch_cpus.iew.iewDispStoreInsts    978118005                       # Number of dispatched store instructions
system.switch_cpus.iew.iewDispatchedInsts   6009786982                       # Number of instructions dispatched to IQ
system.switch_cpus.iew.iewExecLoadInsts    1319925339                       # Number of load instructions executed
system.switch_cpus.iew.iewExecSquashedInsts      1512119                       # Number of squashed instructions skipped in execute
system.switch_cpus.iew.iewExecutedInsts    6109768361                       # Number of executed instructions
system.switch_cpus.iew.iewIQFullEvents        3166937                       # Number of times the IQ has become full, causing a stall
system.switch_cpus.iew.iewIdleCycles                0                       # Number of cycles IEW is idle
system.switch_cpus.iew.iewLSQFullEvents     604241978                       # Number of times the LSQ has become full, causing a stall
system.switch_cpus.iew.iewSquashCycles        1507919                       # Number of cycles IEW is squashing
system.switch_cpus.iew.iewUnblockCycles     607419788                       # Number of cycles IEW is unblocking
system.switch_cpus.iew.lsq.thread0.blockedLoads            0                       # Number of blocked loads due to partial load-store forwarding
system.switch_cpus.iew.lsq.thread0.cacheBlocked            2                       # Number of times an access to memory failed due to the cache being blocked
system.switch_cpus.iew.lsq.thread0.forwLoads    202292109                       # Number of loads that had data forwarded from stores
system.switch_cpus.iew.lsq.thread0.ignoredResponses         3260                       # Number of memory responses ignored because the instruction is squashed
system.switch_cpus.iew.lsq.thread0.invAddrLoads            0                       # Number of loads ignored due to an invalid address
system.switch_cpus.iew.lsq.thread0.invAddrSwpfs            0                       # Number of software prefetches ignored due to an invalid address
system.switch_cpus.iew.lsq.thread0.memOrderViolation        98752                       # Number of memory ordering violations
system.switch_cpus.iew.lsq.thread0.rescheduledLoads    116712156                       # Number of loads that were rescheduled
system.switch_cpus.iew.lsq.thread0.squashedLoads      6059924                       # Number of loads squashed
system.switch_cpus.iew.lsq.thread0.squashedStores      4808404                       # Number of stores squashed
system.switch_cpus.iew.memOrderViolationEvents        98752                       # Number of memory order violations
system.switch_cpus.iew.predictedNotTakenIncorrect       919517                       # Number of branches that were predicted not taken incorrectly
system.switch_cpus.iew.predictedTakenIncorrect      1070041                       # Number of branches that were predicted taken incorrectly
system.switch_cpus.iew.wb_consumers        5756790950                       # num instructions consuming a value
system.switch_cpus.iew.wb_count            5991890428                       # cumulative count of insts written-back
system.switch_cpus.iew.wb_fanout             0.584078                       # average fanout of values written-back
system.switch_cpus.iew.wb_producers        3362416712                       # num instructions producing a value
system.switch_cpus.iew.wb_rate               1.235762                       # insts written-back per cycle
system.switch_cpus.iew.wb_sent             5992113876                       # cumulative count of insts sent to commit
system.switch_cpus.int_regfile_reads       7475910935                       # number of integer regfile reads
system.switch_cpus.int_regfile_writes      4258804057                       # number of integer regfile writes
system.switch_cpus.ipc                       1.043155                       # IPC: Instructions Per Cycle
system.switch_cpus.ipc_total                 1.043155                       # IPC: Total IPC of All Threads
system.switch_cpus.iq.FU_type_0::No_OpClass            0      0.00%      0.00% # Type of FU issued
system.switch_cpus.iq.FU_type_0::IntAlu    3604040186     58.97%     58.97% # Type of FU issued
system.switch_cpus.iq.FU_type_0::IntMult    211590872      3.46%     62.44% # Type of FU issued
system.switch_cpus.iq.FU_type_0::IntDiv             0      0.00%     62.44% # Type of FU issued
system.switch_cpus.iq.FU_type_0::FloatAdd            0      0.00%     62.44% # Type of FU issued
system.switch_cpus.iq.FU_type_0::FloatCmp            0      0.00%     62.44% # Type of FU issued
system.switch_cpus.iq.FU_type_0::FloatCvt            0      0.00%     62.44% # Type of FU issued
system.switch_cpus.iq.FU_type_0::FloatMult            0      0.00%     62.44% # Type of FU issued
system.switch_cpus.iq.FU_type_0::FloatMultAcc            0      0.00%     62.44% # Type of FU issued
system.switch_cpus.iq.FU_type_0::FloatDiv            0      0.00%     62.44% # Type of FU issued
system.switch_cpus.iq.FU_type_0::FloatMisc            4      0.00%     62.44% # Type of FU issued
system.switch_cpus.iq.FU_type_0::FloatSqrt            0      0.00%     62.44% # Type of FU issued
system.switch_cpus.iq.FU_type_0::SimdAdd            0      0.00%     62.44% # Type of FU issued
system.switch_cpus.iq.FU_type_0::SimdAddAcc            0      0.00%     62.44% # Type of FU issued
system.switch_cpus.iq.FU_type_0::SimdAlu            0      0.00%     62.44% # Type of FU issued
system.switch_cpus.iq.FU_type_0::SimdCmp            0      0.00%     62.44% # Type of FU issued
system.switch_cpus.iq.FU_type_0::SimdCvt            0      0.00%     62.44% # Type of FU issued
system.switch_cpus.iq.FU_type_0::SimdMisc       357550      0.01%     62.44% # Type of FU issued
system.switch_cpus.iq.FU_type_0::SimdMult            0      0.00%     62.44% # Type of FU issued
system.switch_cpus.iq.FU_type_0::SimdMultAcc            0      0.00%     62.44% # Type of FU issued
system.switch_cpus.iq.FU_type_0::SimdShift            0      0.00%     62.44% # Type of FU issued
system.switch_cpus.iq.FU_type_0::SimdShiftAcc            0      0.00%     62.44% # Type of FU issued
system.switch_cpus.iq.FU_type_0::SimdDiv            0      0.00%     62.44% # Type of FU issued
system.switch_cpus.iq.FU_type_0::SimdSqrt            0      0.00%     62.44% # Type of FU issued
system.switch_cpus.iq.FU_type_0::SimdFloatAdd            0      0.00%     62.44% # Type of FU issued
system.switch_cpus.iq.FU_type_0::SimdFloatAlu            0      0.00%     62.44% # Type of FU issued
system.switch_cpus.iq.FU_type_0::SimdFloatCmp            0      0.00%     62.44% # Type of FU issued
system.switch_cpus.iq.FU_type_0::SimdFloatCvt            0      0.00%     62.44% # Type of FU issued
system.switch_cpus.iq.FU_type_0::SimdFloatDiv            0      0.00%     62.44% # Type of FU issued
system.switch_cpus.iq.FU_type_0::SimdFloatMisc            0      0.00%     62.44% # Type of FU issued
system.switch_cpus.iq.FU_type_0::SimdFloatMult            0      0.00%     62.44% # Type of FU issued
system.switch_cpus.iq.FU_type_0::SimdFloatMultAcc            0      0.00%     62.44% # Type of FU issued
system.switch_cpus.iq.FU_type_0::SimdFloatSqrt            0      0.00%     62.44% # Type of FU issued
system.switch_cpus.iq.FU_type_0::SimdReduceAdd            0      0.00%     62.44% # Type of FU issued
system.switch_cpus.iq.FU_type_0::SimdReduceAlu            0      0.00%     62.44% # Type of FU issued
system.switch_cpus.iq.FU_type_0::SimdReduceCmp            0      0.00%     62.44% # Type of FU issued
system.switch_cpus.iq.FU_type_0::SimdFloatReduceAdd            0      0.00%     62.44% # Type of FU issued
system.switch_cpus.iq.FU_type_0::SimdFloatReduceCmp            0      0.00%     62.44% # Type of FU issued
system.switch_cpus.iq.FU_type_0::SimdAes            0      0.00%     62.44% # Type of FU issued
system.switch_cpus.iq.FU_type_0::SimdAesMix            0      0.00%     62.44% # Type of FU issued
system.switch_cpus.iq.FU_type_0::SimdSha1Hash            0      0.00%     62.44% # Type of FU issued
system.switch_cpus.iq.FU_type_0::SimdSha1Hash2            0      0.00%     62.44% # Type of FU issued
system.switch_cpus.iq.FU_type_0::SimdSha256Hash            0      0.00%     62.44% # Type of FU issued
system.switch_cpus.iq.FU_type_0::SimdSha256Hash2            0      0.00%     62.44% # Type of FU issued
system.switch_cpus.iq.FU_type_0::SimdShaSigma2            0      0.00%     62.44% # Type of FU issued
system.switch_cpus.iq.FU_type_0::SimdShaSigma3            0      0.00%     62.44% # Type of FU issued
system.switch_cpus.iq.FU_type_0::SimdPredAlu            0      0.00%     62.44% # Type of FU issued
system.switch_cpus.iq.FU_type_0::MemRead   1319969484     21.60%     84.04% # Type of FU issued
system.switch_cpus.iq.FU_type_0::MemWrite    975322384     15.96%    100.00% # Type of FU issued
system.switch_cpus.iq.FU_type_0::FloatMemRead            0      0.00%    100.00% # Type of FU issued
system.switch_cpus.iq.FU_type_0::FloatMemWrite            0      0.00%    100.00% # Type of FU issued
system.switch_cpus.iq.FU_type_0::IprAccess            0      0.00%    100.00% # Type of FU issued
system.switch_cpus.iq.FU_type_0::InstPrefetch            0      0.00%    100.00% # Type of FU issued
system.switch_cpus.iq.FU_type_0::total     6111280480                       # Type of FU issued
system.switch_cpus.iq.fp_alu_accesses               0                       # Number of floating point alu accesses
system.switch_cpus.iq.fp_inst_queue_reads            0                       # Number of floating instruction queue reads
system.switch_cpus.iq.fp_inst_queue_wakeup_accesses            0                       # Number of floating instruction queue wakeup accesses
system.switch_cpus.iq.fp_inst_queue_writes            0                       # Number of floating instruction queue writes
system.switch_cpus.iq.fu_busy_cnt           143356710                       # FU busy when requested
system.switch_cpus.iq.fu_busy_rate           0.023458                       # FU busy rate (busy events/executed inst)
system.switch_cpus.iq.fu_full::No_OpClass            0      0.00%      0.00% # attempts to use FU when none available
system.switch_cpus.iq.fu_full::IntAlu        12793214      8.92%      8.92% # attempts to use FU when none available
system.switch_cpus.iq.fu_full::IntMult       11448743      7.99%     16.91% # attempts to use FU when none available
system.switch_cpus.iq.fu_full::IntDiv               0      0.00%     16.91% # attempts to use FU when none available
system.switch_cpus.iq.fu_full::FloatAdd             0      0.00%     16.91% # attempts to use FU when none available
system.switch_cpus.iq.fu_full::FloatCmp             0      0.00%     16.91% # attempts to use FU when none available
system.switch_cpus.iq.fu_full::FloatCvt             0      0.00%     16.91% # attempts to use FU when none available
system.switch_cpus.iq.fu_full::FloatMult            0      0.00%     16.91% # attempts to use FU when none available
system.switch_cpus.iq.fu_full::FloatMultAcc            0      0.00%     16.91% # attempts to use FU when none available
system.switch_cpus.iq.fu_full::FloatDiv             0      0.00%     16.91% # attempts to use FU when none available
system.switch_cpus.iq.fu_full::FloatMisc            0      0.00%     16.91% # attempts to use FU when none available
system.switch_cpus.iq.fu_full::FloatSqrt            0      0.00%     16.91% # attempts to use FU when none available
system.switch_cpus.iq.fu_full::SimdAdd              0      0.00%     16.91% # attempts to use FU when none available
system.switch_cpus.iq.fu_full::SimdAddAcc            0      0.00%     16.91% # attempts to use FU when none available
system.switch_cpus.iq.fu_full::SimdAlu              0      0.00%     16.91% # attempts to use FU when none available
system.switch_cpus.iq.fu_full::SimdCmp              0      0.00%     16.91% # attempts to use FU when none available
system.switch_cpus.iq.fu_full::SimdCvt              0      0.00%     16.91% # attempts to use FU when none available
system.switch_cpus.iq.fu_full::SimdMisc             0      0.00%     16.91% # attempts to use FU when none available
system.switch_cpus.iq.fu_full::SimdMult             0      0.00%     16.91% # attempts to use FU when none available
system.switch_cpus.iq.fu_full::SimdMultAcc            0      0.00%     16.91% # attempts to use FU when none available
system.switch_cpus.iq.fu_full::SimdShift            0      0.00%     16.91% # attempts to use FU when none available
system.switch_cpus.iq.fu_full::SimdShiftAcc            0      0.00%     16.91% # attempts to use FU when none available
system.switch_cpus.iq.fu_full::SimdDiv              0      0.00%     16.91% # attempts to use FU when none available
system.switch_cpus.iq.fu_full::SimdSqrt             0      0.00%     16.91% # attempts to use FU when none available
system.switch_cpus.iq.fu_full::SimdFloatAdd            0      0.00%     16.91% # attempts to use FU when none available
system.switch_cpus.iq.fu_full::SimdFloatAlu            0      0.00%     16.91% # attempts to use FU when none available
system.switch_cpus.iq.fu_full::SimdFloatCmp            0      0.00%     16.91% # attempts to use FU when none available
system.switch_cpus.iq.fu_full::SimdFloatCvt            0      0.00%     16.91% # attempts to use FU when none available
system.switch_cpus.iq.fu_full::SimdFloatDiv            0      0.00%     16.91% # attempts to use FU when none available
system.switch_cpus.iq.fu_full::SimdFloatMisc            0      0.00%     16.91% # attempts to use FU when none available
system.switch_cpus.iq.fu_full::SimdFloatMult            0      0.00%     16.91% # attempts to use FU when none available
system.switch_cpus.iq.fu_full::SimdFloatMultAcc            0      0.00%     16.91% # attempts to use FU when none available
system.switch_cpus.iq.fu_full::SimdFloatSqrt            0      0.00%     16.91% # attempts to use FU when none available
system.switch_cpus.iq.fu_full::SimdReduceAdd            0      0.00%     16.91% # attempts to use FU when none available
system.switch_cpus.iq.fu_full::SimdReduceAlu            0      0.00%     16.91% # attempts to use FU when none available
system.switch_cpus.iq.fu_full::SimdReduceCmp            0      0.00%     16.91% # attempts to use FU when none available
system.switch_cpus.iq.fu_full::SimdFloatReduceAdd            0      0.00%     16.91% # attempts to use FU when none available
system.switch_cpus.iq.fu_full::SimdFloatReduceCmp            0      0.00%     16.91% # attempts to use FU when none available
system.switch_cpus.iq.fu_full::SimdAes              0      0.00%     16.91% # attempts to use FU when none available
system.switch_cpus.iq.fu_full::SimdAesMix            0      0.00%     16.91% # attempts to use FU when none available
system.switch_cpus.iq.fu_full::SimdSha1Hash            0      0.00%     16.91% # attempts to use FU when none available
system.switch_cpus.iq.fu_full::SimdSha1Hash2            0      0.00%     16.91% # attempts to use FU when none available
system.switch_cpus.iq.fu_full::SimdSha256Hash            0      0.00%     16.91% # attempts to use FU when none available
system.switch_cpus.iq.fu_full::SimdSha256Hash2            0      0.00%     16.91% # attempts to use FU when none available
system.switch_cpus.iq.fu_full::SimdShaSigma2            0      0.00%     16.91% # attempts to use FU when none available
system.switch_cpus.iq.fu_full::SimdShaSigma3            0      0.00%     16.91% # attempts to use FU when none available
system.switch_cpus.iq.fu_full::SimdPredAlu            0      0.00%     16.91% # attempts to use FU when none available
system.switch_cpus.iq.fu_full::MemRead       60597114     42.27%     59.18% # attempts to use FU when none available
system.switch_cpus.iq.fu_full::MemWrite      58517639     40.82%    100.00% # attempts to use FU when none available
system.switch_cpus.iq.fu_full::FloatMemRead            0      0.00%    100.00% # attempts to use FU when none available
system.switch_cpus.iq.fu_full::FloatMemWrite            0      0.00%    100.00% # attempts to use FU when none available
system.switch_cpus.iq.fu_full::IprAccess            0      0.00%    100.00% # attempts to use FU when none available
system.switch_cpus.iq.fu_full::InstPrefetch            0      0.00%    100.00% # attempts to use FU when none available
system.switch_cpus.iq.int_alu_accesses     5942850829                       # Number of integer alu accesses
system.switch_cpus.iq.int_inst_queue_reads  16619755482                       # Number of integer instruction queue reads
system.switch_cpus.iq.int_inst_queue_wakeup_accesses   5799757236                       # Number of integer instruction queue wakeup accesses
system.switch_cpus.iq.int_inst_queue_writes   5848385765                       # Number of integer instruction queue writes
system.switch_cpus.iq.iqInstsAdded         5958168655                       # Number of instructions added to the IQ (excludes non-spec)
system.switch_cpus.iq.iqInstsIssued        6111280480                       # Number of instructions issued
system.switch_cpus.iq.iqNonSpecInstsAdded     51618327                       # Number of non-speculative instructions added to the IQ
system.switch_cpus.iq.iqSquashedInstsExamined     31305231                       # Number of squashed instructions iterated over during squash; mainly for profiling
system.switch_cpus.iq.iqSquashedInstsIssued        27436                       # Number of squashed instructions issued
system.switch_cpus.iq.iqSquashedNonSpecRemoved       179658                       # Number of squashed non-spec instructions that were removed
system.switch_cpus.iq.iqSquashedOperandsExamined     27388907                       # Number of squashed operands that are examined and possibly removed from graph
system.switch_cpus.iq.issued_per_cycle::samples   4848742739                       # Number of insts issued each cycle
system.switch_cpus.iq.issued_per_cycle::mean     1.260385                       # Number of insts issued each cycle
system.switch_cpus.iq.issued_per_cycle::stdev     2.021032                       # Number of insts issued each cycle
system.switch_cpus.iq.issued_per_cycle::underflows            0      0.00%      0.00% # Number of insts issued each cycle
system.switch_cpus.iq.issued_per_cycle::0   2948820165     60.82%     60.82% # Number of insts issued each cycle
system.switch_cpus.iq.issued_per_cycle::1    522029603     10.77%     71.58% # Number of insts issued each cycle
system.switch_cpus.iq.issued_per_cycle::2    339064618      6.99%     78.58% # Number of insts issued each cycle
system.switch_cpus.iq.issued_per_cycle::3    283844107      5.85%     84.43% # Number of insts issued each cycle
system.switch_cpus.iq.issued_per_cycle::4    239413071      4.94%     89.37% # Number of insts issued each cycle
system.switch_cpus.iq.issued_per_cycle::5    215847879      4.45%     93.82% # Number of insts issued each cycle
system.switch_cpus.iq.issued_per_cycle::6    145973082      3.01%     96.83% # Number of insts issued each cycle
system.switch_cpus.iq.issued_per_cycle::7     83142563      1.71%     98.54% # Number of insts issued each cycle
system.switch_cpus.iq.issued_per_cycle::8     70607651      1.46%    100.00% # Number of insts issued each cycle
system.switch_cpus.iq.issued_per_cycle::overflows            0      0.00%    100.00% # Number of insts issued each cycle
system.switch_cpus.iq.issued_per_cycle::min_value            0                       # Number of insts issued each cycle
system.switch_cpus.iq.issued_per_cycle::max_value            8                       # Number of insts issued each cycle
system.switch_cpus.iq.issued_per_cycle::total   4848742739                       # Number of insts issued each cycle
system.switch_cpus.iq.rate                   1.260384                       # Inst issue rate
system.switch_cpus.iq.vec_alu_accesses      311786361                       # Number of vector alu accesses
system.switch_cpus.iq.vec_inst_queue_reads    594932363                       # Number of vector instruction queue reads
system.switch_cpus.iq.vec_inst_queue_wakeup_accesses    192133192                       # Number of vector instruction queue wakeup accesses
system.switch_cpus.iq.vec_inst_queue_writes    192804904                       # Number of vector instruction queue writes
system.switch_cpus.itb.accesses                     0                       # DTB accesses
system.switch_cpus.itb.align_faults                 0                       # Number of TLB faults due to alignment restrictions
system.switch_cpus.itb.domain_faults                0                       # Number of TLB faults due to domain restrictions
system.switch_cpus.itb.flush_entries                0                       # Number of entries that have been flushed from TLB
system.switch_cpus.itb.flush_tlb                    0                       # Number of times complete TLB was flushed
system.switch_cpus.itb.flush_tlb_asid               0                       # Number of times TLB was flushed by ASID
system.switch_cpus.itb.flush_tlb_mva                0                       # Number of times TLB was flushed by MVA
system.switch_cpus.itb.flush_tlb_mva_asid            0                       # Number of times TLB was flushed by MVA & ASID
system.switch_cpus.itb.hits                         0                       # DTB hits
system.switch_cpus.itb.inst_accesses                0                       # ITB inst accesses
system.switch_cpus.itb.inst_hits                    0                       # ITB inst hits
system.switch_cpus.itb.inst_misses                  0                       # ITB inst misses
system.switch_cpus.itb.misses                       0                       # DTB misses
system.switch_cpus.itb.perms_faults                 0                       # Number of TLB faults due to permissions restrictions
system.switch_cpus.itb.prefetch_faults              0                       # Number of TLB faults due to prefetch
system.switch_cpus.itb.read_accesses                0                       # DTB read accesses
system.switch_cpus.itb.read_hits                    0                       # DTB read hits
system.switch_cpus.itb.read_misses                  0                       # DTB read misses
system.switch_cpus.itb.stage2_mmu.stage2_tlb.accesses            0                       # DTB accesses
system.switch_cpus.itb.stage2_mmu.stage2_tlb.align_faults            0                       # Number of TLB faults due to alignment restrictions
system.switch_cpus.itb.stage2_mmu.stage2_tlb.domain_faults            0                       # Number of TLB faults due to domain restrictions
system.switch_cpus.itb.stage2_mmu.stage2_tlb.flush_entries            0                       # Number of entries that have been flushed from TLB
system.switch_cpus.itb.stage2_mmu.stage2_tlb.flush_tlb            0                       # Number of times complete TLB was flushed
system.switch_cpus.itb.stage2_mmu.stage2_tlb.flush_tlb_asid            0                       # Number of times TLB was flushed by ASID
system.switch_cpus.itb.stage2_mmu.stage2_tlb.flush_tlb_mva            0                       # Number of times TLB was flushed by MVA
system.switch_cpus.itb.stage2_mmu.stage2_tlb.flush_tlb_mva_asid            0                       # Number of times TLB was flushed by MVA & ASID
system.switch_cpus.itb.stage2_mmu.stage2_tlb.hits            0                       # DTB hits
system.switch_cpus.itb.stage2_mmu.stage2_tlb.inst_accesses            0                       # ITB inst accesses
system.switch_cpus.itb.stage2_mmu.stage2_tlb.inst_hits            0                       # ITB inst hits
system.switch_cpus.itb.stage2_mmu.stage2_tlb.inst_misses            0                       # ITB inst misses
system.switch_cpus.itb.stage2_mmu.stage2_tlb.misses            0                       # DTB misses
system.switch_cpus.itb.stage2_mmu.stage2_tlb.perms_faults            0                       # Number of TLB faults due to permissions restrictions
system.switch_cpus.itb.stage2_mmu.stage2_tlb.prefetch_faults            0                       # Number of TLB faults due to prefetch
system.switch_cpus.itb.stage2_mmu.stage2_tlb.read_accesses            0                       # DTB read accesses
system.switch_cpus.itb.stage2_mmu.stage2_tlb.read_hits            0                       # DTB read hits
system.switch_cpus.itb.stage2_mmu.stage2_tlb.read_misses            0                       # DTB read misses
system.switch_cpus.itb.stage2_mmu.stage2_tlb.walker.walkRequestOrigin_Requested::Data            0                       # Table walker requests started/completed, data/inst
system.switch_cpus.itb.stage2_mmu.stage2_tlb.walker.walkRequestOrigin_Requested::Inst            0                       # Table walker requests started/completed, data/inst
system.switch_cpus.itb.stage2_mmu.stage2_tlb.walker.walkRequestOrigin_Requested::total            0                       # Table walker requests started/completed, data/inst
system.switch_cpus.itb.stage2_mmu.stage2_tlb.walker.walkRequestOrigin_Completed::Data            0                       # Table walker requests started/completed, data/inst
system.switch_cpus.itb.stage2_mmu.stage2_tlb.walker.walkRequestOrigin_Completed::Inst            0                       # Table walker requests started/completed, data/inst
system.switch_cpus.itb.stage2_mmu.stage2_tlb.walker.walkRequestOrigin_Completed::total            0                       # Table walker requests started/completed, data/inst
system.switch_cpus.itb.stage2_mmu.stage2_tlb.walker.walkRequestOrigin::total            0                       # Table walker requests started/completed, data/inst
system.switch_cpus.itb.stage2_mmu.stage2_tlb.walker.walks            0                       # Table walker walks requested
system.switch_cpus.itb.stage2_mmu.stage2_tlb.write_accesses            0                       # DTB write accesses
system.switch_cpus.itb.stage2_mmu.stage2_tlb.write_hits            0                       # DTB write hits
system.switch_cpus.itb.stage2_mmu.stage2_tlb.write_misses            0                       # DTB write misses
system.switch_cpus.itb.walker.walkRequestOrigin_Requested::Data            0                       # Table walker requests started/completed, data/inst
system.switch_cpus.itb.walker.walkRequestOrigin_Requested::Inst            0                       # Table walker requests started/completed, data/inst
system.switch_cpus.itb.walker.walkRequestOrigin_Requested::total            0                       # Table walker requests started/completed, data/inst
system.switch_cpus.itb.walker.walkRequestOrigin_Completed::Data            0                       # Table walker requests started/completed, data/inst
system.switch_cpus.itb.walker.walkRequestOrigin_Completed::Inst            0                       # Table walker requests started/completed, data/inst
system.switch_cpus.itb.walker.walkRequestOrigin_Completed::total            0                       # Table walker requests started/completed, data/inst
system.switch_cpus.itb.walker.walkRequestOrigin::total            0                       # Table walker requests started/completed, data/inst
system.switch_cpus.itb.walker.walks                 0                       # Table walker walks requested
system.switch_cpus.itb.write_accesses               0                       # DTB write accesses
system.switch_cpus.itb.write_hits                   0                       # DTB write hits
system.switch_cpus.itb.write_misses                 0                       # DTB write misses
system.switch_cpus.memDep0.conflictingLoads    108630985                       # Number of conflicting loads.
system.switch_cpus.memDep0.conflictingStores     62166088                       # Number of conflicting stores.
system.switch_cpus.memDep0.insertedLoads   1206571353                       # Number of loads inserted to the mem dependence unit.
system.switch_cpus.memDep0.insertedStores    978118005                       # Number of stores inserted to the mem dependence unit.
system.switch_cpus.misc_regfile_reads      7334213119                       # number of misc regfile reads
system.switch_cpus.misc_regfile_writes      205753280                       # number of misc regfile writes
system.switch_cpus.numCycles               4848743326                       # number of cpu cycles simulated
system.switch_cpus.numWorkItemsCompleted            0                       # number of work items this cpu completed
[...]
system.cpu.dcache.demand_hits::.cpu.data    778851097                       # number of demand (read+write) hits
system.cpu.dcache.demand_hits::.switch_cpus.data   1821297179                       # number of demand (read+write) hits
system.cpu.dcache.demand_hits::total       2600148276                       # number of demand (read+write) hits
system.cpu.dcache.overall_hits::.cpu.data    778851097                       # number of overall hits
system.cpu.dcache.overall_hits::.switch_cpus.data   1821297179                       # number of overall hits
system.cpu.dcache.overall_hits::total      2600148276                       # number of overall hits
system.cpu.dcache.demand_misses::.cpu.data      7212603                       # number of demand (read+write) misses
system.cpu.dcache.demand_misses::.switch_cpus.data     62513838                       # number of demand (read+write) misses
system.cpu.dcache.demand_misses::total       69726441                       # number of demand (read+write) misses
system.cpu.dcache.overall_misses::.cpu.data      7212603                       # number of overall misses
system.cpu.dcache.overall_misses::.switch_cpus.data     62513838                       # number of overall misses
system.cpu.dcache.overall_misses::total      69726441                       # number of overall misses
system.cpu.dcache.demand_miss_latency::.switch_cpus.data 4955086981698                       # number of demand (read+write) miss cycles
system.cpu.dcache.demand_miss_latency::total 4955086981698                       # number of demand (read+write) miss cycles
system.cpu.dcache.overall_miss_latency::.switch_cpus.data 4955086981698                       # number of overall miss cycles
system.cpu.dcache.overall_miss_latency::total 4955086981698                       # number of overall miss cycles
system.cpu.dcache.demand_accesses::.cpu.data    786063700                       # number of demand (read+write) accesses
system.cpu.dcache.demand_accesses::.switch_cpus.data   1883811017                       # number of demand (read+write) accesses
system.cpu.dcache.demand_accesses::total   2669874717                       # number of demand (read+write) accesses
system.cpu.dcache.overall_accesses::.cpu.data    786063700                       # number of overall (read+write) accesses
system.cpu.dcache.overall_accesses::.switch_cpus.data   1883811017                       # number of overall (read+write) accesses
system.cpu.dcache.overall_accesses::total   2669874717                       # number of overall (read+write) accesses
system.cpu.dcache.demand_miss_rate::.cpu.data     0.009176                       # miss rate for demand accesses
system.cpu.dcache.demand_miss_rate::.switch_cpus.data     0.033185                       # miss rate for demand accesses
system.cpu.dcache.demand_miss_rate::total     0.026116                       # miss rate for demand accesses
system.cpu.dcache.overall_miss_rate::.cpu.data     0.009176                       # miss rate for overall accesses
system.cpu.dcache.overall_miss_rate::.switch_cpus.data     0.033185                       # miss rate for overall accesses
system.cpu.dcache.overall_miss_rate::total     0.026116                       # miss rate for overall accesses
system.cpu.dcache.demand_avg_miss_latency::.switch_cpus.data 79263.842058                       # average overall miss latency
system.cpu.dcache.demand_avg_miss_latency::total 71064.676622                       # average overall miss latency
system.cpu.dcache.overall_avg_miss_latency::.switch_cpus.data 79263.842058                       # average overall miss latency
system.cpu.dcache.overall_avg_miss_latency::total 71064.676622                       # average overall miss latency
system.cpu.dcache.blocked_cycles::no_mshrs        36829                       # number of cycles access was blocked
system.cpu.dcache.blocked_cycles::no_targets          151                       # number of cycles access was blocked
system.cpu.dcache.blocked::no_mshrs               348                       # number of cycles access was blocked
system.cpu.dcache.blocked::no_targets               1                       # number of cycles access was blocked
system.cpu.dcache.avg_blocked_cycles::no_mshrs   105.830460                       # average number of cycles each access was blocked
system.cpu.dcache.avg_blocked_cycles::no_targets          151                       # average number of cycles each access was blocked
system.cpu.dcache.writebacks::.writebacks     15656948                       # number of writebacks
system.cpu.dcache.writebacks::total          15656948                       # number of writebacks
system.cpu.dcache.demand_mshr_hits::.switch_cpus.data     51222801                       # number of demand (read+write) MSHR hits
system.cpu.dcache.demand_mshr_hits::total     51222801                       # number of demand (read+write) MSHR hits
system.cpu.dcache.overall_mshr_hits::.switch_cpus.data     51222801                       # number of overall MSHR hits
system.cpu.dcache.overall_mshr_hits::total     51222801                       # number of overall MSHR hits
system.cpu.dcache.demand_mshr_misses::.switch_cpus.data     11291037                       # number of demand (read+write) MSHR misses
system.cpu.dcache.demand_mshr_misses::total     11291037                       # number of demand (read+write) MSHR misses
system.cpu.dcache.overall_mshr_misses::.switch_cpus.data     11291037                       # number of overall MSHR misses
system.cpu.dcache.overall_mshr_misses::total     11291037                       # number of overall MSHR misses
system.cpu.dcache.demand_mshr_miss_latency::.switch_cpus.data 887218098780                       # number of demand (read+write) MSHR miss cycles
system.cpu.dcache.demand_mshr_miss_latency::total 887218098780                       # number of demand (read+write) MSHR miss cycles
system.cpu.dcache.overall_mshr_miss_latency::.switch_cpus.data 887218098780                       # number of overall MSHR miss cycles
system.cpu.dcache.overall_mshr_miss_latency::total 887218098780                       # number of overall MSHR miss cycles
system.cpu.dcache.demand_mshr_miss_rate::.switch_cpus.data     0.005994                       # mshr miss rate for demand accesses
system.cpu.dcache.demand_mshr_miss_rate::total     0.004229                       # mshr miss rate for demand accesses
system.cpu.dcache.overall_mshr_miss_rate::.switch_cpus.data     0.005994                       # mshr miss rate for overall accesses
system.cpu.dcache.overall_mshr_miss_rate::total     0.004229                       # mshr miss rate for overall accesses
system.cpu.dcache.demand_avg_mshr_miss_latency::.switch_cpus.data 78577.202323                       # average overall mshr miss latency
system.cpu.dcache.demand_avg_mshr_miss_latency::total 78577.202323                       # average overall mshr miss latency
system.cpu.dcache.overall_avg_mshr_miss_latency::.switch_cpus.data 78577.202323                       # average overall mshr miss latency
system.cpu.dcache.overall_avg_mshr_miss_latency::total 78577.202323                       # average overall mshr miss latency
system.cpu.dcache.replacements               18503860                       # number of replacements
system.cpu.dcache.ReadReq_hits::.cpu.data    421359358                       # number of ReadReq hits
system.cpu.dcache.ReadReq_hits::.switch_cpus.data    899429417                       # number of ReadReq hits
system.cpu.dcache.ReadReq_hits::total      1320788775                       # number of ReadReq hits
system.cpu.dcache.ReadReq_misses::.cpu.data      3681555                       # number of ReadReq misses
system.cpu.dcache.ReadReq_misses::.switch_cpus.data     62510352                       # number of ReadReq misses
system.cpu.dcache.ReadReq_misses::total      66191907                       # number of ReadReq misses
system.cpu.dcache.ReadReq_miss_latency::.switch_cpus.data 4954768144332                       # number of ReadReq miss cycles
system.cpu.dcache.ReadReq_miss_latency::total 4954768144332                       # number of ReadReq miss cycles
system.cpu.dcache.ReadReq_accesses::.cpu.data    425040913                       # number of ReadReq accesses(hits+misses)
system.cpu.dcache.ReadReq_accesses::.switch_cpus.data    961939769                       # number of ReadReq accesses(hits+misses)
system.cpu.dcache.ReadReq_accesses::total   1386980682                       # number of ReadReq accesses(hits+misses)
system.cpu.dcache.ReadReq_miss_rate::.cpu.data     0.008662                       # miss rate for ReadReq accesses
system.cpu.dcache.ReadReq_miss_rate::.switch_cpus.data     0.064984                       # miss rate for ReadReq accesses
system.cpu.dcache.ReadReq_miss_rate::total     0.047724                       # miss rate for ReadReq accesses
system.cpu.dcache.ReadReq_avg_miss_latency::.switch_cpus.data 79263.161793                       # average ReadReq miss latency
system.cpu.dcache.ReadReq_avg_miss_latency::total 74854.591277                       # average ReadReq miss latency
system.cpu.dcache.ReadReq_mshr_hits::.switch_cpus.data     51220360                       # number of ReadReq MSHR hits
system.cpu.dcache.ReadReq_mshr_hits::total     51220360                       # number of ReadReq MSHR hits
system.cpu.dcache.ReadReq_mshr_misses::.switch_cpus.data     11289992                       # number of ReadReq MSHR misses
system.cpu.dcache.ReadReq_mshr_misses::total     11289992                       # number of ReadReq MSHR misses
system.cpu.dcache.ReadReq_mshr_miss_latency::.switch_cpus.data 887128839930                       # number of ReadReq MSHR miss cycles
system.cpu.dcache.ReadReq_mshr_miss_latency::total 887128839930                       # number of ReadReq MSHR miss cycles
system.cpu.dcache.ReadReq_mshr_miss_rate::.switch_cpus.data     0.011737                       # mshr miss rate for ReadReq accesses
system.cpu.dcache.ReadReq_mshr_miss_rate::total     0.008140                       # mshr miss rate for ReadReq accesses
system.cpu.dcache.ReadReq_avg_mshr_miss_latency::.switch_cpus.data 78576.569401                       # average ReadReq mshr miss latency
system.cpu.dcache.ReadReq_avg_mshr_miss_latency::total 78576.569401                       # average ReadReq mshr miss latency
system.cpu.dcache.WriteReq_hits::.cpu.data    357491739                       # number of WriteReq hits
system.cpu.dcache.WriteReq_hits::.switch_cpus.data    921867762                       # number of WriteReq hits
system.cpu.dcache.WriteReq_hits::total     1279359501                       # number of WriteReq hits
system.cpu.dcache.WriteReq_misses::.cpu.data      3531048                       # number of WriteReq misses
system.cpu.dcache.WriteReq_misses::.switch_cpus.data         3486                       # number of WriteReq misses
system.cpu.dcache.WriteReq_misses::total      3534534                       # number of WriteReq misses
system.cpu.dcache.WriteReq_miss_latency::.switch_cpus.data    318837366                       # number of WriteReq miss cycles
system.cpu.dcache.WriteReq_miss_latency::total    318837366                       # number of WriteReq miss cycles
system.cpu.dcache.WriteReq_accesses::.cpu.data    361022787                       # number of WriteReq accesses(hits+misses)
system.cpu.dcache.WriteReq_accesses::.switch_cpus.data    921871248                       # number of WriteReq accesses(hits+misses)
system.cpu.dcache.WriteReq_accesses::total   1282894035                       # number of WriteReq accesses(hits+misses)
system.cpu.dcache.WriteReq_miss_rate::.cpu.data     0.009781                       # miss rate for WriteReq accesses
system.cpu.dcache.WriteReq_miss_rate::.switch_cpus.data     0.000004                       # miss rate for WriteReq accesses
system.cpu.dcache.WriteReq_miss_rate::total     0.002755                       # miss rate for WriteReq accesses
system.cpu.dcache.WriteReq_avg_miss_latency::.switch_cpus.data 91462.239243                       # average WriteReq miss latency
system.cpu.dcache.WriteReq_avg_miss_latency::total    90.206337                       # average WriteReq miss latency
system.cpu.dcache.WriteReq_mshr_hits::.switch_cpus.data         2441                       # number of WriteReq MSHR hits
system.cpu.dcache.WriteReq_mshr_hits::total         2441                       # number of WriteReq MSHR hits
system.cpu.dcache.WriteReq_mshr_misses::.switch_cpus.data         1045                       # number of WriteReq MSHR misses
system.cpu.dcache.WriteReq_mshr_misses::total         1045                       # number of WriteReq MSHR misses
system.cpu.dcache.WriteReq_mshr_miss_latency::.switch_cpus.data     89258850                       # number of WriteReq MSHR miss cycles
system.cpu.dcache.WriteReq_mshr_miss_latency::total     89258850                       # number of WriteReq MSHR miss cycles
system.cpu.dcache.WriteReq_mshr_miss_rate::.switch_cpus.data     0.000001                       # mshr miss rate for WriteReq accesses
system.cpu.dcache.WriteReq_mshr_miss_rate::total     0.000001                       # mshr miss rate for WriteReq accesses
system.cpu.dcache.WriteReq_avg_mshr_miss_latency::.switch_cpus.data 85415.167464                       # average WriteReq mshr miss latency
system.cpu.dcache.WriteReq_avg_mshr_miss_latency::total 85415.167464                       # average WriteReq mshr miss latency
system.cpu.dcache.LoadLockedReq_hits::.cpu.data     18661767                       # number of LoadLockedReq hits
system.cpu.dcache.LoadLockedReq_hits::.switch_cpus.data     51438330                       # number of LoadLockedReq hits
system.cpu.dcache.LoadLockedReq_hits::total     70100097                       # number of LoadLockedReq hits
system.cpu.dcache.LoadLockedReq_misses::.cpu.data          128                       # number of LoadLockedReq misses
system.cpu.dcache.LoadLockedReq_misses::.switch_cpus.data          696                       # number of LoadLockedReq misses
system.cpu.dcache.LoadLockedReq_misses::total          824                       # number of LoadLockedReq misses
system.cpu.dcache.LoadLockedReq_miss_latency::.switch_cpus.data     56923419                       # number of LoadLockedReq miss cycles
system.cpu.dcache.LoadLockedReq_miss_latency::total     56923419                       # number of LoadLockedReq miss cycles
system.cpu.dcache.LoadLockedReq_accesses::.cpu.data     18661895                       # number of LoadLockedReq accesses(hits+misses)
system.cpu.dcache.LoadLockedReq_accesses::.switch_cpus.data     51439026                       # number of LoadLockedReq accesses(hits+misses)
system.cpu.dcache.LoadLockedReq_accesses::total     70100921                       # number of LoadLockedReq accesses(hits+misses)
system.cpu.dcache.LoadLockedReq_miss_rate::.cpu.data     0.000007                       # miss rate for LoadLockedReq accesses
system.cpu.dcache.LoadLockedReq_miss_rate::.switch_cpus.data     0.000014                       # miss rate for LoadLockedReq accesses
system.cpu.dcache.LoadLockedReq_miss_rate::total     0.000012                       # miss rate for LoadLockedReq accesses
system.cpu.dcache.LoadLockedReq_avg_miss_latency::.switch_cpus.data 81786.521552                       # average LoadLockedReq miss latency
system.cpu.dcache.LoadLockedReq_avg_miss_latency::total 69081.819175                       # average LoadLockedReq miss latency
system.cpu.dcache.LoadLockedReq_mshr_hits::.switch_cpus.data          347                       # number of LoadLockedReq MSHR hits
system.cpu.dcache.LoadLockedReq_mshr_hits::total          347                       # number of LoadLockedReq MSHR hits
system.cpu.dcache.LoadLockedReq_mshr_misses::.switch_cpus.data          349                       # number of LoadLockedReq MSHR misses
system.cpu.dcache.LoadLockedReq_mshr_misses::total          349                       # number of LoadLockedReq MSHR misses
system.cpu.dcache.LoadLockedReq_mshr_miss_latency::.switch_cpus.data     25728483                       # number of LoadLockedReq MSHR miss cycles
system.cpu.dcache.LoadLockedReq_mshr_miss_latency::total     25728483                       # number of LoadLockedReq MSHR miss cycles
system.cpu.dcache.LoadLockedReq_mshr_miss_rate::.switch_cpus.data     0.000007                       # mshr miss rate for LoadLockedReq accesses
system.cpu.dcache.LoadLockedReq_mshr_miss_rate::total     0.000005                       # mshr miss rate for LoadLockedReq accesses
system.cpu.dcache.LoadLockedReq_avg_mshr_miss_latency::.switch_cpus.data 73720.581662                       # average LoadLockedReq mshr miss latency
system.cpu.dcache.LoadLockedReq_avg_mshr_miss_latency::total 73720.581662                       # average LoadLockedReq mshr miss latency
system.cpu.dcache.StoreCondReq_hits::.cpu.data     18661895                       # number of StoreCondReq hits
system.cpu.dcache.StoreCondReq_hits::.switch_cpus.data     51438320                       # number of StoreCondReq hits
system.cpu.dcache.StoreCondReq_hits::total     70100215                       # number of StoreCondReq hits
system.cpu.dcache.StoreCondReq_accesses::.cpu.data     18661895                       # number of StoreCondReq accesses(hits+misses)
system.cpu.dcache.StoreCondReq_accesses::.switch_cpus.data     51438320                       # number of StoreCondReq accesses(hits+misses)
system.cpu.dcache.StoreCondReq_accesses::total     70100215                       # number of StoreCondReq accesses(hits+misses)
system.cpu.dcache.tags.pwrStateResidencyTicks::UNDEFINED 3000000000000                       # Cumulative time (in ticks) in various power states
system.cpu.dcache.tags.tagsinuse           255.999543                       # Cycle average of tags in use
system.cpu.dcache.tags.total_refs          2758852704                       # Total number of references to valid blocks.
system.cpu.dcache.tags.sampled_refs          18504116                       # Sample count of references to valid blocks.
system.cpu.dcache.tags.avg_refs            149.094002                       # Average number of references to valid blocks.
system.cpu.dcache.tags.warmup_cycle              1668                       # Cycle when the warmup percentage was hit.
system.cpu.dcache.tags.occ_blocks::.cpu.data   123.901468                       # Average occupied blocks per requestor
system.cpu.dcache.tags.occ_blocks::.switch_cpus.data   132.098075                       # Average occupied blocks per requestor
system.cpu.dcache.tags.occ_percent::.cpu.data     0.483990                       # Average percentage of cache occupancy
system.cpu.dcache.tags.occ_percent::.switch_cpus.data     0.516008                       # Average percentage of cache occupancy
system.cpu.dcache.tags.occ_percent::total     0.999998                       # Average percentage of cache occupancy
system.cpu.dcache.tags.occ_task_id_blocks::1024          256                       # Occupied blocks per task id
system.cpu.dcache.tags.age_task_id_blocks_1024::0           51                       # Occupied blocks per task id
system.cpu.dcache.tags.age_task_id_blocks_1024::1          145                       # Occupied blocks per task id
system.cpu.dcache.tags.age_task_id_blocks_1024::4           60                       # Occupied blocks per task id
system.cpu.dcache.tags.occ_task_id_percent::1024            1                       # Percentage of cache occupancy per task id
system.cpu.dcache.tags.tag_accesses       89940931412                       # Number of tag accesses
system.cpu.dcache.tags.data_accesses      89940931412                       # Number of data accesses

---------- End Simulation Statistics   ----------
