
---------- Begin Simulation Statistics ----------
sim_seconds                                  0.010305                       # Number of seconds simulated
sim_ticks                                 10305428169                       # Number of ticks simulated
final_tick                               536492412933                       # Number of ticks from beginning of simulation (restored from checkpoints and never reset)
sim_freq                                 1000000000000                       # Frequency of simulated ticks
host_inst_rate                                 191316                       # Simulator instruction rate (inst/s)
host_op_rate                                   239006                       # Simulator op (including micro ops) rate (op/s)
host_tick_rate                                 241691                       # Simulator tick rate (ticks/s)
host_mem_usage                               67371544                       # Number of bytes of host memory used
host_seconds                                 42638.88                       # Real time elapsed on the host
sim_insts                                  8157505538                       # Number of instructions simulated
sim_ops                                   10190964694                       # Number of ops (including micro ops) simulated
system.physmem.bytes_read::switch_cpus0.inst         4736                       # Number of bytes read from this memory
system.physmem.bytes_read::switch_cpus0.data        82944                       # Number of bytes read from this memory
system.physmem.bytes_read::switch_cpus1.inst         4480                       # Number of bytes read from this memory
system.physmem.bytes_read::switch_cpus1.data       159232                       # Number of bytes read from this memory
system.physmem.bytes_read::switch_cpus2.inst         4352                       # Number of bytes read from this memory
system.physmem.bytes_read::switch_cpus2.data       156032                       # Number of bytes read from this memory
system.physmem.bytes_read::switch_cpus3.inst         4480                       # Number of bytes read from this memory
system.physmem.bytes_read::switch_cpus3.data       318464                       # Number of bytes read from this memory
system.physmem.bytes_read::switch_cpus4.inst         4480                       # Number of bytes read from this memory
system.physmem.bytes_read::switch_cpus4.data        83072                       # Number of bytes read from this memory
system.physmem.bytes_read::switch_cpus5.inst         4224                       # Number of bytes read from this memory
system.physmem.bytes_read::switch_cpus5.data       319616                       # Number of bytes read from this memory
system.physmem.bytes_read::switch_cpus6.inst         4736                       # Number of bytes read from this memory
system.physmem.bytes_read::switch_cpus6.data       156032                       # Number of bytes read from this memory
system.physmem.bytes_read::switch_cpus7.inst         4096                       # Number of bytes read from this memory
system.physmem.bytes_read::switch_cpus7.data       318976                       # Number of bytes read from this memory
system.physmem.bytes_read::total              1629952                       # Number of bytes read from this memory
system.physmem.bytes_inst_read::switch_cpus0.inst         4736                       # Number of instructions bytes read from this memory
system.physmem.bytes_inst_read::switch_cpus1.inst         4480                       # Number of instructions bytes read from this memory
system.physmem.bytes_inst_read::switch_cpus2.inst         4352                       # Number of instructions bytes read from this memory
system.physmem.bytes_inst_read::switch_cpus3.inst         4480                       # Number of instructions bytes read from this memory
system.physmem.bytes_inst_read::switch_cpus4.inst         4480                       # Number of instructions bytes read from this memory
system.physmem.bytes_inst_read::switch_cpus5.inst         4224                       # Number of instructions bytes read from this memory
system.physmem.bytes_inst_read::switch_cpus6.inst         4736                       # Number of instructions bytes read from this memory
system.physmem.bytes_inst_read::switch_cpus7.inst         4096                       # Number of instructions bytes read from this memory
system.physmem.bytes_inst_read::total           35584                       # Number of instructions bytes read from this memory
system.physmem.bytes_written::writebacks       634112                       # Number of bytes written to this memory
system.physmem.bytes_written::total            634112                       # Number of bytes written to this memory
system.physmem.num_reads::switch_cpus0.inst           37                       # Number of read requests responded to by this memory
system.physmem.num_reads::switch_cpus0.data          648                       # Number of read requests responded to by this memory
system.physmem.num_reads::switch_cpus1.inst           35                       # Number of read requests responded to by this memory
system.physmem.num_reads::switch_cpus1.data         1244                       # Number of read requests responded to by this memory
system.physmem.num_reads::switch_cpus2.inst           34                       # Number of read requests responded to by this memory
system.physmem.num_reads::switch_cpus2.data         1219                       # Number of read requests responded to by this memory
system.physmem.num_reads::switch_cpus3.inst           35                       # Number of read requests responded to by this memory
system.physmem.num_reads::switch_cpus3.data         2488                       # Number of read requests responded to by this memory
system.physmem.num_reads::switch_cpus4.inst           35                       # Number of read requests responded to by this memory
system.physmem.num_reads::switch_cpus4.data          649                       # Number of read requests responded to by this memory
system.physmem.num_reads::switch_cpus5.inst           33                       # Number of read requests responded to by this memory
system.physmem.num_reads::switch_cpus5.data         2497                       # Number of read requests responded to by this memory
system.physmem.num_reads::switch_cpus6.inst           37                       # Number of read requests responded to by this memory
system.physmem.num_reads::switch_cpus6.data         1219                       # Number of read requests responded to by this memory
system.physmem.num_reads::switch_cpus7.inst           32                       # Number of read requests responded to by this memory
system.physmem.num_reads::switch_cpus7.data         2492                       # Number of read requests responded to by this memory
system.physmem.num_reads::total                 12734                       # Number of read requests responded to by this memory
system.physmem.num_writes::writebacks            4954                       # Number of write requests responded to by this memory
system.physmem.num_writes::functional               0                       # Number of write requests responded to by this memory
system.physmem.num_writes::interrupt                0                       # Number of write requests responded to by this memory
system.physmem.num_writes::switch_cpus0.dtb.walker            0                       # Number of write requests responded to by this memory
system.physmem.num_writes::switch_cpus0.itb.walker            0                       # Number of write requests responded to by this memory
system.physmem.num_writes::switch_cpus0.inst            0                       # Number of write requests responded to by this memory
system.physmem.num_writes::switch_cpus0.data            0                       # Number of write requests responded to by this memory
system.physmem.num_writes::switch_cpus1.dtb.walker            0                       # Number of write requests responded to by this memory
system.physmem.num_writes::switch_cpus1.itb.walker            0                       # Number of write requests responded to by this memory
system.physmem.num_writes::switch_cpus1.inst            0                       # Number of write requests responded to by this memory
system.physmem.num_writes::switch_cpus1.data            0                       # Number of write requests responded to by this memory
system.physmem.num_writes::switch_cpus2.dtb.walker            0                       # Number of write requests responded to by this memory
system.physmem.num_writes::switch_cpus2.itb.walker            0                       # Number of write requests responded to by this memory
system.physmem.num_writes::switch_cpus2.inst            0                       # Number of write requests responded to by this memory
system.physmem.num_writes::switch_cpus2.data            0                       # Number of write requests responded to by this memory
system.physmem.num_writes::switch_cpus3.dtb.walker            0                       # Number of write requests responded to by this memory
system.physmem.num_writes::switch_cpus3.itb.walker            0                       # Number of write requests responded to by this memory
system.physmem.num_writes::switch_cpus3.inst            0                       # Number of write requests responded to by this memory
system.physmem.num_writes::switch_cpus3.data            0                       # Number of write requests responded to by this memory
system.physmem.num_writes::switch_cpus4.dtb.walker            0                       # Number of write requests responded to by this memory
system.physmem.num_writes::switch_cpus4.itb.walker            0                       # Number of write requests responded to by this memory
system.physmem.num_writes::switch_cpus4.inst            0                       # Number of write requests responded to by this memory
system.physmem.num_writes::switch_cpus4.data            0                       # Number of write requests responded to by this memory
system.physmem.num_writes::switch_cpus5.dtb.walker            0                       # Number of write requests responded to by this memory
system.physmem.num_writes::switch_cpus5.itb.walker            0                       # Number of write requests responded to by this memory
system.physmem.num_writes::switch_cpus5.inst            0                       # Number of write requests responded to by this memory
system.physmem.num_writes::switch_cpus5.data            0                       # Number of write requests responded to by this memory
system.physmem.num_writes::switch_cpus6.dtb.walker            0                       # Number of write requests responded to by this memory
system.physmem.num_writes::switch_cpus6.itb.walker            0                       # Number of write requests responded to by this memory
system.physmem.num_writes::switch_cpus6.inst            0                       # Number of write requests responded to by this memory
system.physmem.num_writes::switch_cpus6.data            0                       # Number of write requests responded to by this memory
system.physmem.num_writes::switch_cpus7.dtb.walker            0                       # Number of write requests responded to by this memory
system.physmem.num_writes::switch_cpus7.itb.walker            0                       # Number of write requests responded to by this memory
system.physmem.num_writes::switch_cpus7.inst            0                       # Number of write requests responded to by this memory
system.physmem.num_writes::switch_cpus7.data            0                       # Number of write requests responded to by this memory
system.physmem.num_writes::cpu0.dtb.walker            0                       # Number of write requests responded to by this memory
system.physmem.num_writes::cpu0.itb.walker            0                       # Number of write requests responded to by this memory
system.physmem.num_writes::cpu0.inst                0                       # Number of write requests responded to by this memory
system.physmem.num_writes::cpu0.data                0                       # Number of write requests responded to by this memory
system.physmem.num_writes::cpu1.dtb.walker            0                       # Number of write requests responded to by this memory
system.physmem.num_writes::cpu1.itb.walker            0                       # Number of write requests responded to by this memory
system.physmem.num_writes::cpu1.inst                0                       # Number of write requests responded to by this memory
system.physmem.num_writes::cpu1.data                0                       # Number of write requests responded to by this memory
system.physmem.num_writes::cpu2.dtb.walker            0                       # Number of write requests responded to by this memory
system.physmem.num_writes::cpu2.itb.walker            0                       # Number of write requests responded to by this memory
system.physmem.num_writes::cpu2.inst                0                       # Number of write requests responded to by this memory
system.physmem.num_writes::cpu2.data                0                       # Number of write requests responded to by this memory
system.physmem.num_writes::cpu3.dtb.walker            0                       # Number of write requests responded to by this memory
system.physmem.num_writes::cpu3.itb.walker            0                       # Number of write requests responded to by this memory
system.physmem.num_writes::cpu3.inst                0                       # Number of write requests responded to by this memory
system.physmem.num_writes::cpu3.data                0                       # Number of write requests responded to by this memory
system.physmem.num_writes::cpu4.dtb.walker            0                       # Number of write requests responded to by this memory
system.physmem.num_writes::cpu4.itb.walker            0                       # Number of write requests responded to by this memory
system.physmem.num_writes::cpu4.inst                0                       # Number of write requests responded to by this memory
system.physmem.num_writes::cpu4.data                0                       # Number of write requests responded to by this memory
system.physmem.num_writes::cpu5.dtb.walker            0                       # Number of write requests responded to by this memory
system.physmem.num_writes::cpu5.itb.walker            0                       # Number of write requests responded to by this memory
system.physmem.num_writes::cpu5.inst                0                       # Number of write requests responded to by this memory
system.physmem.num_writes::cpu5.data                0                       # Number of write requests responded to by this memory
system.physmem.num_writes::cpu6.dtb.walker            0                       # Number of write requests responded to by this memory
system.physmem.num_writes::cpu6.itb.walker            0                       # Number of write requests responded to by this memory
system.physmem.num_writes::cpu6.inst                0                       # Number of write requests responded to by this memory
system.physmem.num_writes::cpu6.data                0                       # Number of write requests responded to by this memory
system.physmem.num_writes::cpu7.dtb.walker            0                       # Number of write requests responded to by this memory
system.physmem.num_writes::cpu7.itb.walker            0                       # Number of write requests responded to by this memory
system.physmem.num_writes::cpu7.inst                0                       # Number of write requests responded to by this memory
system.physmem.num_writes::cpu7.data                0                       # Number of write requests responded to by this memory
system.physmem.num_writes::total                 4954                       # Number of write requests responded to by this memory
system.physmem.bw_read::switch_cpus0.inst       459564                       # Total read bandwidth from this memory (bytes/s)
system.physmem.bw_read::switch_cpus0.data      8048574                       # Total read bandwidth from this memory (bytes/s)
system.physmem.bw_read::switch_cpus1.inst       434722                       # Total read bandwidth from this memory (bytes/s)
system.physmem.bw_read::switch_cpus1.data     15451275                       # Total read bandwidth from this memory (bytes/s)
system.physmem.bw_read::switch_cpus2.inst       422302                       # Total read bandwidth from this memory (bytes/s)
system.physmem.bw_read::switch_cpus2.data     15140759                       # Total read bandwidth from this memory (bytes/s)
system.physmem.bw_read::switch_cpus3.inst       434722                       # Total read bandwidth from this memory (bytes/s)
system.physmem.bw_read::switch_cpus3.data     30902549                       # Total read bandwidth from this memory (bytes/s)
system.physmem.bw_read::switch_cpus4.inst       434722                       # Total read bandwidth from this memory (bytes/s)
system.physmem.bw_read::switch_cpus4.data      8060995                       # Total read bandwidth from this memory (bytes/s)
system.physmem.bw_read::switch_cpus5.inst       409881                       # Total read bandwidth from this memory (bytes/s)
system.physmem.bw_read::switch_cpus5.data     31014335                       # Total read bandwidth from this memory (bytes/s)
system.physmem.bw_read::switch_cpus6.inst       459564                       # Total read bandwidth from this memory (bytes/s)
system.physmem.bw_read::switch_cpus6.data     15140759                       # Total read bandwidth from this memory (bytes/s)
system.physmem.bw_read::switch_cpus7.inst       397460                       # Total read bandwidth from this memory (bytes/s)
system.physmem.bw_read::switch_cpus7.data     30952232                       # Total read bandwidth from this memory (bytes/s)
system.physmem.bw_read::total               158164413                       # Total read bandwidth from this memory (bytes/s)
system.physmem.bw_inst_read::switch_cpus0.inst       459564                       # Instruction read bandwidth from this memory (bytes/s)
system.physmem.bw_inst_read::switch_cpus1.inst       434722                       # Instruction read bandwidth from this memory (bytes/s)
system.physmem.bw_inst_read::switch_cpus2.inst       422302                       # Instruction read bandwidth from this memory (bytes/s)
system.physmem.bw_inst_read::switch_cpus3.inst       434722                       # Instruction read bandwidth from this memory (bytes/s)
system.physmem.bw_inst_read::switch_cpus4.inst       434722                       # Instruction read bandwidth from this memory (bytes/s)
system.physmem.bw_inst_read::switch_cpus5.inst       409881                       # Instruction read bandwidth from this memory (bytes/s)
system.physmem.bw_inst_read::switch_cpus6.inst       459564                       # Instruction read bandwidth from this memory (bytes/s)
system.physmem.bw_inst_read::switch_cpus7.inst       397460                       # Instruction read bandwidth from this memory (bytes/s)
system.physmem.bw_inst_read::total            3452938                       # Instruction read bandwidth from this memory (bytes/s)
system.physmem.bw_write::writebacks          61531844                       # Write bandwidth from this memory (bytes/s)
system.physmem.bw_write::total               61531844                       # Write bandwidth from this memory (bytes/s)
system.physmem.bw_total::writebacks          61531844                       # Total bandwidth to/from this memory (bytes/s)
system.physmem.bw_total::switch_cpus0.inst       459564                       # Total bandwidth to/from this memory (bytes/s)
system.physmem.bw_total::switch_cpus0.data      8048574                       # Total bandwidth to/from this memory (bytes/s)
system.physmem.bw_total::switch_cpus1.inst       434722                       # Total bandwidth to/from this memory (bytes/s)
system.physmem.bw_total::switch_cpus1.data     15451275                       # Total bandwidth to/from this memory (bytes/s)
system.physmem.bw_total::switch_cpus2.inst       422302                       # Total bandwidth to/from this memory (bytes/s)
system.physmem.bw_total::switch_cpus2.data     15140759                       # Total bandwidth to/from this memory (bytes/s)
system.physmem.bw_total::switch_cpus3.inst       434722                       # Total bandwidth to/from this memory (bytes/s)
system.physmem.bw_total::switch_cpus3.data     30902549                       # Total bandwidth to/from this memory (bytes/s)
system.physmem.bw_total::switch_cpus4.inst       434722                       # Total bandwidth to/from this memory (bytes/s)
system.physmem.bw_total::switch_cpus4.data      8060995                       # Total bandwidth to/from this memory (bytes/s)
system.physmem.bw_total::switch_cpus5.inst       409881                       # Total bandwidth to/from this memory (bytes/s)
system.physmem.bw_total::switch_cpus5.data     31014335                       # Total bandwidth to/from this memory (bytes/s)
system.physmem.bw_total::switch_cpus6.inst       459564                       # Total bandwidth to/from this memory (bytes/s)
system.physmem.bw_total::switch_cpus6.data     15140759                       # Total bandwidth to/from this memory (bytes/s)
system.physmem.bw_total::switch_cpus7.inst       397460                       # Total bandwidth to/from this memory (bytes/s)
system.physmem.bw_total::switch_cpus7.data     30952232                       # Total bandwidth to/from this memory (bytes/s)
system.physmem.bw_total::total              219696257                       # Total bandwidth to/from this memory (bytes/s)
system.switch_cpus0.dtb.inst_hits                   0                       # ITB inst hits
system.switch_cpus0.dtb.inst_misses                 0                       # ITB inst misses
system.switch_cpus0.dtb.read_hits                   0                       # DTB read hits
system.switch_cpus0.dtb.read_misses                 0                       # DTB read misses
system.switch_cpus0.dtb.write_hits                  0                       # DTB write hits
system.switch_cpus0.dtb.write_misses                0                       # DTB write misses
system.switch_cpus0.dtb.flush_tlb                   0                       # Number of times complete TLB was flushed
system.switch_cpus0.dtb.flush_tlb_mva               0                       # Number of times TLB was flushed by MVA
system.switch_cpus0.dtb.flush_tlb_mva_asid            0                       # Number of times TLB was flushed by MVA & ASID
system.switch_cpus0.dtb.flush_tlb_asid              0                       # Number of times TLB was flushed by ASID
system.switch_cpus0.dtb.flush_entries               0                       # Number of entries that have been flushed from TLB
system.switch_cpus0.dtb.align_faults                0                       # Number of TLB faults due to alignment restrictions
system.switch_cpus0.dtb.prefetch_faults             0                       # Number of TLB faults due to prefetch
system.switch_cpus0.dtb.domain_faults               0                       # Number of TLB faults due to domain restrictions
system.switch_cpus0.dtb.perms_faults                0                       # Number of TLB faults due to permissions restrictions
system.switch_cpus0.dtb.read_accesses               0                       # DTB read accesses
system.switch_cpus0.dtb.write_accesses              0                       # DTB write accesses
system.switch_cpus0.dtb.inst_accesses               0                       # ITB inst accesses
system.switch_cpus0.dtb.hits                        0                       # DTB hits
system.switch_cpus0.dtb.misses                      0                       # DTB misses
system.switch_cpus0.dtb.accesses                    0                       # DTB accesses
system.switch_cpus0.itb.inst_hits                   0                       # ITB inst hits
system.switch_cpus0.itb.inst_misses                 0                       # ITB inst misses
system.switch_cpus0.itb.read_hits                   0                       # DTB read hits
system.switch_cpus0.itb.read_misses                 0                       # DTB read misses
system.switch_cpus0.itb.write_hits                  0                       # DTB write hits
system.switch_cpus0.itb.write_misses                0                       # DTB write misses
system.switch_cpus0.itb.flush_tlb                   0                       # Number of times complete TLB was flushed
system.switch_cpus0.itb.flush_tlb_mva               0                       # Number of times TLB was flushed by MVA
system.switch_cpus0.itb.flush_tlb_mva_asid            0                       # Number of times TLB was flushed by MVA & ASID
system.switch_cpus0.itb.flush_tlb_asid              0                       # Number of times TLB was flushed by ASID
system.switch_cpus0.itb.flush_entries               0                       # Number of entries that have been flushed from TLB
system.switch_cpus0.itb.align_faults                0                       # Number of TLB faults due to alignment restrictions
system.switch_cpus0.itb.prefetch_faults             0                       # Number of TLB faults due to prefetch
system.switch_cpus0.itb.domain_faults               0                       # Number of TLB faults due to domain restrictions
system.switch_cpus0.itb.perms_faults                0                       # Number of TLB faults due to permissions restrictions
system.switch_cpus0.itb.read_accesses               0                       # DTB read accesses
system.switch_cpus0.itb.write_accesses              0                       # DTB write accesses
system.switch_cpus0.itb.inst_accesses               0                       # ITB inst accesses
system.switch_cpus0.itb.hits                        0                       # DTB hits
system.switch_cpus0.itb.misses                      0                       # DTB misses
system.switch_cpus0.itb.accesses                    0                       # DTB accesses
system.cpu0.workload.num_syscalls                   6                       # Number of system calls
system.switch_cpus0.numCycles                24713258                       # number of cpu cycles simulated
system.switch_cpus0.numWorkItemsStarted             0                       # number of work items this cpu started
system.switch_cpus0.numWorkItemsCompleted            0                       # number of work items this cpu completed
system.switch_cpus0.BPredUnit.lookups         2212119                       # Number of BP lookups
system.switch_cpus0.BPredUnit.condPredicted      1841548                       # Number of conditional branches predicted
system.switch_cpus0.BPredUnit.condIncorrect       202700                       # Number of conditional branches incorrect
system.switch_cpus0.BPredUnit.BTBLookups       846396                       # Number of BTB lookups
system.switch_cpus0.BPredUnit.BTBHits          808426                       # Number of BTB hits
system.switch_cpus0.BPredUnit.BTBCorrect            0                       # Number of correct BTB predictions (this stat may not work properly.
system.switch_cpus0.BPredUnit.usedRAS          237802                       # Number of times the RAS was used to get a target.
system.switch_cpus0.BPredUnit.RASInCorrect         9498                       # Number of incorrect RAS predictions.
system.switch_cpus0.fetch.icacheStallCycles     19233122                       # Number of cycles fetch is stalled on an Icache miss
system.switch_cpus0.fetch.Insts              12131883                       # Number of instructions fetch has processed
system.switch_cpus0.fetch.Branches            2212119                       # Number of branches that fetch encountered
system.switch_cpus0.fetch.predictedBranches      1046228                       # Number of branches that fetch has predicted taken
system.switch_cpus0.fetch.Cycles              2528586                       # Number of cycles fetch has run and was not squashing or blocked
system.switch_cpus0.fetch.SquashCycles         565822                       # Number of cycles fetch has spent squashing
system.switch_cpus0.fetch.BlockedCycles        983301                       # Number of cycles fetch has spent blocked
system.switch_cpus0.fetch.MiscStallCycles            1                       # Number of cycles fetch has spent waiting on interrupts, or bad addresses, or out of MSHRs
system.switch_cpus0.fetch.IcacheWaitRetryStallCycles           11                       # Number of stall cycles due to full MSHR
system.switch_cpus0.fetch.CacheLines          1196120                       # Number of cache lines fetched
system.switch_cpus0.fetch.IcacheSquashes       193741                       # Number of outstanding Icache misses that were squashed
system.switch_cpus0.fetch.rateDist::samples     23106297                       # Number of instructions fetched each cycle (Total)
system.switch_cpus0.fetch.rateDist::mean     0.645483                       # Number of instructions fetched each cycle (Total)
system.switch_cpus0.fetch.rateDist::stdev     2.017281                       # Number of instructions fetched each cycle (Total)
system.switch_cpus0.fetch.rateDist::underflows            0      0.00%      0.00% # Number of instructions fetched each cycle (Total)
system.switch_cpus0.fetch.rateDist::0        20577711     89.06%     89.06% # Number of instructions fetched each cycle (Total)
system.switch_cpus0.fetch.rateDist::1          154974      0.67%     89.73% # Number of instructions fetched each cycle (Total)
system.switch_cpus0.fetch.rateDist::2          195154      0.84%     90.57% # Number of instructions fetched each cycle (Total)
system.switch_cpus0.fetch.rateDist::3          310528      1.34%     91.92% # Number of instructions fetched each cycle (Total)
system.switch_cpus0.fetch.rateDist::4          130313      0.56%     92.48% # Number of instructions fetched each cycle (Total)
system.switch_cpus0.fetch.rateDist::5          168107      0.73%     93.21% # Number of instructions fetched each cycle (Total)
system.switch_cpus0.fetch.rateDist::6          195036      0.84%     94.05% # Number of instructions fetched each cycle (Total)
system.switch_cpus0.fetch.rateDist::7           89948      0.39%     94.44% # Number of instructions fetched each cycle (Total)
system.switch_cpus0.fetch.rateDist::8         1284526      5.56%    100.00% # Number of instructions fetched each cycle (Total)
system.switch_cpus0.fetch.rateDist::overflows            0      0.00%    100.00% # Number of instructions fetched each cycle (Total)
system.switch_cpus0.fetch.rateDist::min_value            0                       # Number of instructions fetched each cycle (Total)
system.switch_cpus0.fetch.rateDist::max_value            8                       # Number of instructions fetched each cycle (Total)
system.switch_cpus0.fetch.rateDist::total     23106297                       # Number of instructions fetched each cycle (Total)
system.switch_cpus0.fetch.branchRate         0.089511                       # Number of branch fetches per cycle
system.switch_cpus0.fetch.rate               0.490906                       # Number of inst fetches per cycle
system.switch_cpus0.decode.IdleCycles        19120104                       # Number of cycles decode is idle
system.switch_cpus0.decode.BlockedCycles      1107412                       # Number of cycles decode is blocked
system.switch_cpus0.decode.RunCycles          2516557                       # Number of cycles decode is running
system.switch_cpus0.decode.UnblockCycles         1230                       # Number of cycles decode is unblocking
system.switch_cpus0.decode.SquashCycles        360992                       # Number of cycles decode is squashing
system.switch_cpus0.decode.BranchResolved       336753                       # Number of times decode resolved a branch
system.switch_cpus0.decode.BranchMispred          284                       # Number of times decode detected a branch misprediction
system.switch_cpus0.decode.DecodedInsts      14832464                       # Number of instructions handled by decode
system.switch_cpus0.decode.SquashedInsts         1616                       # Number of squashed instructions handled by decode
system.switch_cpus0.rename.SquashCycles        360992                       # Number of cycles rename is squashing
system.switch_cpus0.rename.IdleCycles        19139909                       # Number of cycles rename is idle
system.switch_cpus0.rename.BlockCycles          61641                       # Number of cycles rename is blocking
system.switch_cpus0.rename.serializeStallCycles       991510                       # count of cycles rename stalled for serializing inst
system.switch_cpus0.rename.RunCycles          2497925                       # Number of cycles rename is running
system.switch_cpus0.rename.UnblockCycles        54316                       # Number of cycles rename is unblocking
system.switch_cpus0.rename.RenamedInsts      14741208                       # Number of instructions processed by rename
system.switch_cpus0.rename.ROBFullEvents           20                       # Number of times rename has blocked due to ROB full
system.switch_cpus0.rename.IQFullEvents          7699                       # Number of times rename has blocked due to IQ full
system.switch_cpus0.rename.LSQFullEvents        37790                       # Number of times rename has blocked due to LSQ full
system.switch_cpus0.rename.RenamedOperands     20582716                       # Number of destination operands rename has renamed
system.switch_cpus0.rename.RenameLookups     68547110                       # Number of register rename lookups that rename has made
system.switch_cpus0.rename.int_rename_lookups     68547110                       # Number of integer rename lookups
system.switch_cpus0.rename.CommittedMaps     17188036                       # Number of HB maps that are committed
system.switch_cpus0.rename.UndoneMaps         3394666                       # Number of HB maps that are undone due to squashing
system.switch_cpus0.rename.serializingInsts         3555                       # count of serializing insts renamed
system.switch_cpus0.rename.tempSerializingInsts         1849                       # count of temporary serializing insts renamed
system.switch_cpus0.rename.skidInsts           191636                       # count of insts added to the skid buffer
system.switch_cpus0.memDep0.insertedLoads      1383859                       # Number of loads inserted to the mem dependence unit.
system.switch_cpus0.memDep0.insertedStores       721466                       # Number of stores inserted to the mem dependence unit.
system.switch_cpus0.memDep0.conflictingLoads         8073                       # Number of conflicting loads.
system.switch_cpus0.memDep0.conflictingStores       164717                       # Number of conflicting stores.
system.switch_cpus0.iq.iqInstsAdded          14388903                       # Number of instructions added to the IQ (excludes non-spec)
system.switch_cpus0.iq.iqNonSpecInstsAdded         3571                       # Number of non-speculative instructions added to the IQ
system.switch_cpus0.iq.iqInstsIssued         13792084                       # Number of instructions issued
system.switch_cpus0.iq.iqSquashedInstsIssued        14054                       # Number of squashed instructions issued
system.switch_cpus0.iq.iqSquashedInstsExamined      1769693                       # Number of squashed instructions iterated over during squash; mainly for profiling
system.switch_cpus0.iq.iqSquashedOperandsExamined      3620939                       # Number of squashed operands that are examined and possibly removed from graph
system.switch_cpus0.iq.iqSquashedNonSpecRemoved          126                       # Number of squashed non-spec instructions that were removed
system.switch_cpus0.iq.issued_per_cycle::samples     23106297                       # Number of insts issued each cycle
system.switch_cpus0.iq.issued_per_cycle::mean     0.596897                       # Number of insts issued each cycle
system.switch_cpus0.iq.issued_per_cycle::stdev     1.318984                       # Number of insts issued each cycle
system.switch_cpus0.iq.issued_per_cycle::underflows            0      0.00%      0.00% # Number of insts issued each cycle
system.switch_cpus0.iq.issued_per_cycle::0     17262510     74.71%     74.71% # Number of insts issued each cycle
system.switch_cpus0.iq.issued_per_cycle::1      2665290     11.53%     86.24% # Number of insts issued each cycle
system.switch_cpus0.iq.issued_per_cycle::2      1089092      4.71%     90.96% # Number of insts issued each cycle
system.switch_cpus0.iq.issued_per_cycle::3       611555      2.65%     93.60% # Number of insts issued each cycle
system.switch_cpus0.iq.issued_per_cycle::4       826777      3.58%     97.18% # Number of insts issued each cycle
system.switch_cpus0.iq.issued_per_cycle::5       255668      1.11%     98.29% # Number of insts issued each cycle
system.switch_cpus0.iq.issued_per_cycle::6       250167      1.08%     99.37% # Number of insts issued each cycle
system.switch_cpus0.iq.issued_per_cycle::7       134409      0.58%     99.95% # Number of insts issued each cycle
system.switch_cpus0.iq.issued_per_cycle::8        10829      0.05%    100.00% # Number of insts issued each cycle
system.switch_cpus0.iq.issued_per_cycle::overflows            0      0.00%    100.00% # Number of insts issued each cycle
system.switch_cpus0.iq.issued_per_cycle::min_value            0                       # Number of insts issued each cycle
system.switch_cpus0.iq.issued_per_cycle::max_value            8                       # Number of insts issued each cycle
system.switch_cpus0.iq.issued_per_cycle::total     23106297                       # Number of insts issued each cycle
system.switch_cpus0.iq.fu_full::No_OpClass            0      0.00%      0.00% # attempts to use FU when none available
system.switch_cpus0.iq.fu_full::IntAlu          94722     78.86%     78.86% # attempts to use FU when none available
system.switch_cpus0.iq.fu_full::IntMult             0      0.00%     78.86% # attempts to use FU when none available
system.switch_cpus0.iq.fu_full::IntDiv              0      0.00%     78.86% # attempts to use FU when none available
system.switch_cpus0.iq.fu_full::FloatAdd            0      0.00%     78.86% # attempts to use FU when none available
system.switch_cpus0.iq.fu_full::FloatCmp            0      0.00%     78.86% # attempts to use FU when none available
system.switch_cpus0.iq.fu_full::FloatCvt            0      0.00%     78.86% # attempts to use FU when none available
system.switch_cpus0.iq.fu_full::FloatMult            0      0.00%     78.86% # attempts to use FU when none available
system.switch_cpus0.iq.fu_full::FloatDiv            0      0.00%     78.86% # attempts to use FU when none available
system.switch_cpus0.iq.fu_full::FloatSqrt            0      0.00%     78.86% # attempts to use FU when none available
system.switch_cpus0.iq.fu_full::SimdAdd             0      0.00%     78.86% # attempts to use FU when none available
system.switch_cpus0.iq.fu_full::SimdAddAcc            0      0.00%     78.86% # attempts to use FU when none available
system.switch_cpus0.iq.fu_full::SimdAlu             0      0.00%     78.86% # attempts to use FU when none available
system.switch_cpus0.iq.fu_full::SimdCmp             0      0.00%     78.86% # attempts to use FU when none available
system.switch_cpus0.iq.fu_full::SimdCvt             0      0.00%     78.86% # attempts to use FU when none available
system.switch_cpus0.iq.fu_full::SimdMisc            0      0.00%     78.86% # attempts to use FU when none available
system.switch_cpus0.iq.fu_full::SimdMult            0      0.00%     78.86% # attempts to use FU when none available
system.switch_cpus0.iq.fu_full::SimdMultAcc            0      0.00%     78.86% # attempts to use FU when none available
system.switch_cpus0.iq.fu_full::SimdShift            0      0.00%     78.86% # attempts to use FU when none available
system.switch_cpus0.iq.fu_full::SimdShiftAcc            0      0.00%     78.86% # attempts to use FU when none available
system.switch_cpus0.iq.fu_full::SimdSqrt            0      0.00%     78.86% # attempts to use FU when none available
system.switch_cpus0.iq.fu_full::SimdFloatAdd            0      0.00%     78.86% # attempts to use FU when none available
system.switch_cpus0.iq.fu_full::SimdFloatAlu            0      0.00%     78.86% # attempts to use FU when none available
system.switch_cpus0.iq.fu_full::SimdFloatCmp            0      0.00%     78.86% # attempts to use FU when none available
system.switch_cpus0.iq.fu_full::SimdFloatCvt            0      0.00%     78.86% # attempts to use FU when none available
system.switch_cpus0.iq.fu_full::SimdFloatDiv            0      0.00%     78.86% # attempts to use FU when none available
system.switch_cpus0.iq.fu_full::SimdFloatMisc            0      0.00%     78.86% # attempts to use FU when none available
system.switch_cpus0.iq.fu_full::SimdFloatMult            0      0.00%     78.86% # attempts to use FU when none available
system.switch_cpus0.iq.fu_full::SimdFloatMultAcc            0      0.00%     78.86% # attempts to use FU when none available
system.switch_cpus0.iq.fu_full::SimdFloatSqrt            0      0.00%     78.86% # attempts to use FU when none available
system.switch_cpus0.iq.fu_full::MemRead         13062     10.87%     89.73% # attempts to use FU when none available
system.switch_cpus0.iq.fu_full::MemWrite        12333     10.27%    100.00% # attempts to use FU when none available
system.switch_cpus0.iq.fu_full::IprAccess            0      0.00%    100.00% # attempts to use FU when none available
system.switch_cpus0.iq.fu_full::InstPrefetch            0      0.00%    100.00% # attempts to use FU when none available
system.switch_cpus0.iq.FU_type_0::No_OpClass            0      0.00%      0.00% # Type of FU issued
system.switch_cpus0.iq.FU_type_0::IntAlu     11618150     84.24%     84.24% # Type of FU issued
system.switch_cpus0.iq.FU_type_0::IntMult       188426      1.37%     85.60% # Type of FU issued
system.switch_cpus0.iq.FU_type_0::IntDiv            0      0.00%     85.60% # Type of FU issued
system.switch_cpus0.iq.FU_type_0::FloatAdd            0      0.00%     85.60% # Type of FU issued
system.switch_cpus0.iq.FU_type_0::FloatCmp            0      0.00%     85.60% # Type of FU issued
system.switch_cpus0.iq.FU_type_0::FloatCvt            0      0.00%     85.60% # Type of FU issued
system.switch_cpus0.iq.FU_type_0::FloatMult            0      0.00%     85.60% # Type of FU issued
system.switch_cpus0.iq.FU_type_0::FloatDiv            0      0.00%     85.60% # Type of FU issued
system.switch_cpus0.iq.FU_type_0::FloatSqrt            0      0.00%     85.60% # Type of FU issued
system.switch_cpus0.iq.FU_type_0::SimdAdd            0      0.00%     85.60% # Type of FU issued
system.switch_cpus0.iq.FU_type_0::SimdAddAcc            0      0.00%     85.60% # Type of FU issued
system.switch_cpus0.iq.FU_type_0::SimdAlu            0      0.00%     85.60% # Type of FU issued
system.switch_cpus0.iq.FU_type_0::SimdCmp            0      0.00%     85.60% # Type of FU issued
system.switch_cpus0.iq.FU_type_0::SimdCvt            0      0.00%     85.60% # Type of FU issued
system.switch_cpus0.iq.FU_type_0::SimdMisc            0      0.00%     85.60% # Type of FU issued
system.switch_cpus0.iq.FU_type_0::SimdMult            0      0.00%     85.60% # Type of FU issued
system.switch_cpus0.iq.FU_type_0::SimdMultAcc            0      0.00%     85.60% # Type of FU issued
system.switch_cpus0.iq.FU_type_0::SimdShift            0      0.00%     85.60% # Type of FU issued
system.switch_cpus0.iq.FU_type_0::SimdShiftAcc            0      0.00%     85.60% # Type of FU issued
system.switch_cpus0.iq.FU_type_0::SimdSqrt            0      0.00%     85.60% # Type of FU issued
system.switch_cpus0.iq.FU_type_0::SimdFloatAdd            0      0.00%     85.60% # Type of FU issued
system.switch_cpus0.iq.FU_type_0::SimdFloatAlu            0      0.00%     85.60% # Type of FU issued
system.switch_cpus0.iq.FU_type_0::SimdFloatCmp            0      0.00%     85.60% # Type of FU issued
system.switch_cpus0.iq.FU_type_0::SimdFloatCvt            0      0.00%     85.60% # Type of FU issued
system.switch_cpus0.iq.FU_type_0::SimdFloatDiv            0      0.00%     85.60% # Type of FU issued
system.switch_cpus0.iq.FU_type_0::SimdFloatMisc         1705      0.01%     85.62% # Type of FU issued
system.switch_cpus0.iq.FU_type_0::SimdFloatMult            0      0.00%     85.62% # Type of FU issued
system.switch_cpus0.iq.FU_type_0::SimdFloatMultAcc            0      0.00%     85.62% # Type of FU issued
system.switch_cpus0.iq.FU_type_0::SimdFloatSqrt            0      0.00%     85.62% # Type of FU issued
system.switch_cpus0.iq.FU_type_0::MemRead      1264840      9.17%     94.79% # Type of FU issued
system.switch_cpus0.iq.FU_type_0::MemWrite       718963      5.21%    100.00% # Type of FU issued
system.switch_cpus0.iq.FU_type_0::IprAccess            0      0.00%    100.00% # Type of FU issued
system.switch_cpus0.iq.FU_type_0::InstPrefetch            0      0.00%    100.00% # Type of FU issued
system.switch_cpus0.iq.FU_type_0::total      13792084                       # Type of FU issued
system.switch_cpus0.iq.rate                  0.558084                       # Inst issue rate
system.switch_cpus0.iq.fu_busy_cnt             120117                       # FU busy when requested
system.switch_cpus0.iq.fu_busy_rate          0.008709                       # FU busy rate (busy events/executed inst)
system.switch_cpus0.iq.int_inst_queue_reads     50824636                       # Number of integer instruction queue reads
system.switch_cpus0.iq.int_inst_queue_writes     16162253                       # Number of integer instruction queue writes
system.switch_cpus0.iq.int_inst_queue_wakeup_accesses     13430369                       # Number of integer instruction queue wakeup accesses
system.switch_cpus0.iq.fp_inst_queue_reads            0                       # Number of floating instruction queue reads
system.switch_cpus0.iq.fp_inst_queue_writes            0                       # Number of floating instruction queue writes
system.switch_cpus0.iq.fp_inst_queue_wakeup_accesses            0                       # Number of floating instruction queue wakeup accesses
system.switch_cpus0.iq.int_alu_accesses      13912201                       # Number of integer alu accesses
system.switch_cpus0.iq.fp_alu_accesses              0                       # Number of floating point alu accesses
system.switch_cpus0.iew.lsq.thread0.forwLoads        10181                       # Number of loads that had data forwarded from stores
system.switch_cpus0.iew.lsq.thread0.invAddrLoads            0                       # Number of loads ignored due to an invalid address
system.switch_cpus0.iew.lsq.thread0.squashedLoads       266517                       # Number of loads squashed
system.switch_cpus0.iew.lsq.thread0.ignoredResponses            6                       # Number of memory responses ignored because the instruction is squashed
system.switch_cpus0.iew.lsq.thread0.memOrderViolation           89                       # Number of memory ordering violations
system.switch_cpus0.iew.lsq.thread0.squashedStores        11245                       # Number of stores squashed
system.switch_cpus0.iew.lsq.thread0.invAddrSwpfs            0                       # Number of software prefetches ignored due to an invalid address
system.switch_cpus0.iew.lsq.thread0.blockedLoads            0                       # Number of blocked loads due to partial load-store forwarding
system.switch_cpus0.iew.lsq.thread0.rescheduledLoads            0                       # Number of loads that were rescheduled
system.switch_cpus0.iew.lsq.thread0.cacheBlocked            0                       # Number of times an access to memory failed due to the cache being blocked
system.switch_cpus0.iew.iewIdleCycles               0                       # Number of cycles IEW is idle
system.switch_cpus0.iew.iewSquashCycles        360992                       # Number of cycles IEW is squashing
system.switch_cpus0.iew.iewBlockCycles          47054                       # Number of cycles IEW is blocking
system.switch_cpus0.iew.iewUnblockCycles         5998                       # Number of cycles IEW is unblocking
system.switch_cpus0.iew.iewDispatchedInsts     14392478                       # Number of instructions dispatched to IQ
system.switch_cpus0.iew.iewDispSquashedInsts        11230                       # Number of squashed instructions skipped by dispatch
system.switch_cpus0.iew.iewDispLoadInsts      1383859                       # Number of dispatched load instructions
system.switch_cpus0.iew.iewDispStoreInsts       721466                       # Number of dispatched store instructions
system.switch_cpus0.iew.iewDispNonSpecInsts         1850                       # Number of dispatched non-speculative instructions
system.switch_cpus0.iew.iewIQFullEvents          5232                       # Number of times the IQ has become full, causing a stall
system.switch_cpus0.iew.iewLSQFullEvents            4                       # Number of times the LSQ has become full, causing a stall
system.switch_cpus0.iew.memOrderViolationEvents           89                       # Number of memory order violations
system.switch_cpus0.iew.predictedTakenIncorrect       118999                       # Number of branches that were predicted taken incorrectly
system.switch_cpus0.iew.predictedNotTakenIncorrect       114664                       # Number of branches that were predicted not taken incorrectly
system.switch_cpus0.iew.branchMispredicts       233663                       # Number of branch mispredicts detected at execute
system.switch_cpus0.iew.iewExecutedInsts     13550415                       # Number of executed instructions
system.switch_cpus0.iew.iewExecLoadInsts      1243512                       # Number of load instructions executed
system.switch_cpus0.iew.iewExecSquashedInsts       241669                       # Number of squashed instructions skipped in execute
system.switch_cpus0.iew.exec_swp                    0                       # number of swp insts executed
system.switch_cpus0.iew.exec_nop                    4                       # number of nop insts executed
system.switch_cpus0.iew.exec_refs             1962381                       # number of memory reference insts executed
system.switch_cpus0.iew.exec_branches         1915716                       # Number of branches executed
system.switch_cpus0.iew.exec_stores            718869                       # Number of stores executed
system.switch_cpus0.iew.exec_rate            0.548305                       # Inst execution rate
system.switch_cpus0.iew.wb_sent              13430468                       # cumulative count of insts sent to commit
system.switch_cpus0.iew.wb_count             13430369                       # cumulative count of insts written-back
system.switch_cpus0.iew.wb_producers          8046100                       # num instructions producing a value
system.switch_cpus0.iew.wb_consumers         21619317                       # num instructions consuming a value
system.switch_cpus0.iew.wb_penalized                0                       # number of instrctions required to write to 'other' IQ
system.switch_cpus0.iew.wb_rate              0.543448                       # insts written-back per cycle
system.switch_cpus0.iew.wb_fanout            0.372172                       # average fanout of values written-back
system.switch_cpus0.iew.wb_penalized_rate            0                       # fraction of instructions written-back that wrote to 'other' IQ
system.switch_cpus0.commit.commitCommittedInsts     10000003                       # The number of committed instructions
system.switch_cpus0.commit.commitCommittedOps     12322356                       # The number of committed instructions
system.switch_cpus0.commit.commitSquashedInsts      2070175                       # The number of squashed insts skipped by commit
system.switch_cpus0.commit.commitNonSpecStalls         3445                       # The number of times commit has been forced to stall to communicate backwards
system.switch_cpus0.commit.branchMispredicts       204204                       # The number of times a branch was mispredicted
system.switch_cpus0.commit.committed_per_cycle::samples     22745305                       # Number of insts commited each cycle
system.switch_cpus0.commit.committed_per_cycle::mean     0.541754                       # Number of insts commited each cycle
system.switch_cpus0.commit.committed_per_cycle::stdev     1.361494                       # Number of insts commited each cycle
system.switch_cpus0.commit.committed_per_cycle::underflows            0      0.00%      0.00% # Number of insts commited each cycle
system.switch_cpus0.commit.committed_per_cycle::0     17528242     77.06%     77.06% # Number of insts commited each cycle
system.switch_cpus0.commit.committed_per_cycle::1      2644557     11.63%     88.69% # Number of insts commited each cycle
system.switch_cpus0.commit.committed_per_cycle::2       960835      4.22%     92.91% # Number of insts commited each cycle
system.switch_cpus0.commit.committed_per_cycle::3       477447      2.10%     95.01% # Number of insts commited each cycle
system.switch_cpus0.commit.committed_per_cycle::4       437410      1.92%     96.94% # Number of insts commited each cycle
system.switch_cpus0.commit.committed_per_cycle::5       183312      0.81%     97.74% # Number of insts commited each cycle
system.switch_cpus0.commit.committed_per_cycle::6       181939      0.80%     98.54% # Number of insts commited each cycle
system.switch_cpus0.commit.committed_per_cycle::7        86550      0.38%     98.92% # Number of insts commited each cycle
system.switch_cpus0.commit.committed_per_cycle::8       245013      1.08%    100.00% # Number of insts commited each cycle
system.switch_cpus0.commit.committed_per_cycle::overflows            0      0.00%    100.00% # Number of insts commited each cycle
system.switch_cpus0.commit.committed_per_cycle::min_value            0                       # Number of insts commited each cycle
system.switch_cpus0.commit.committed_per_cycle::max_value            8                       # Number of insts commited each cycle
system.switch_cpus0.commit.committed_per_cycle::total     22745305                       # Number of insts commited each cycle
system.switch_cpus0.commit.committedInsts     10000003                       # Number of instructions committed
system.switch_cpus0.commit.committedOps      12322356                       # Number of ops (including micro ops) committed
system.switch_cpus0.commit.swp_count                0                       # Number of s/w prefetches committed
system.switch_cpus0.commit.refs               1827560                       # Number of memory references committed
system.switch_cpus0.commit.loads              1117339                       # Number of loads committed
system.switch_cpus0.commit.membars               1718                       # Number of memory barriers committed
system.switch_cpus0.commit.branches           1785946                       # Number of branches committed
system.switch_cpus0.commit.fp_insts                 0                       # Number of committed floating point instructions.
system.switch_cpus0.commit.int_insts         11094269                       # Number of committed integer instructions.
system.switch_cpus0.commit.function_calls       254460                       # Number of function calls committed.
system.switch_cpus0.commit.bw_lim_events       245013                       # number cycles where commit BW limit reached
system.switch_cpus0.commit.bw_limited               0                       # number of insts not committed due to BW limits
system.switch_cpus0.rob.rob_reads            36892745                       # The number of ROB reads
system.switch_cpus0.rob.rob_writes           29146079                       # The number of ROB writes
system.switch_cpus0.timesIdled                 294131                       # Number of times that the entire CPU went into an idle state and unscheduled itself
system.switch_cpus0.idleCycles                1606961                       # Total number of cycles that the CPU has spent unscheduled due to idling
system.switch_cpus0.committedInsts           10000003                       # Number of Instructions Simulated
system.switch_cpus0.committedOps             12322356                       # Number of Ops (including micro ops) Simulated
system.switch_cpus0.committedInsts_total     10000003                       # Number of Instructions Simulated
system.switch_cpus0.cpi                      2.471325                       # CPI: Cycles Per Instruction
system.switch_cpus0.cpi_total                2.471325                       # CPI: Total CPI of All Threads
system.switch_cpus0.ipc                      0.404641                       # IPC: Instructions Per Cycle
system.switch_cpus0.ipc_total                0.404641                       # IPC: Total IPC of All Threads
system.switch_cpus0.int_regfile_reads        60966957                       # number of integer regfile reads
system.switch_cpus0.int_regfile_writes       18765686                       # number of integer regfile writes
system.switch_cpus0.misc_regfile_reads       13713239                       # number of misc regfile reads
system.switch_cpus0.misc_regfile_writes          3442                       # number of misc regfile writes
system.switch_cpus1.dtb.inst_hits                   0                       # ITB inst hits
system.switch_cpus1.dtb.inst_misses                 0                       # ITB inst misses
system.switch_cpus1.dtb.read_hits                   0                       # DTB read hits
system.switch_cpus1.dtb.read_misses                 0                       # DTB read misses
system.switch_cpus1.dtb.write_hits                  0                       # DTB write hits
system.switch_cpus1.dtb.write_misses                0                       # DTB write misses
system.switch_cpus1.dtb.flush_tlb                   0                       # Number of times complete TLB was flushed
system.switch_cpus1.dtb.flush_tlb_mva               0                       # Number of times TLB was flushed by MVA
system.switch_cpus1.dtb.flush_tlb_mva_asid            0                       # Number of times TLB was flushed by MVA & ASID
system.switch_cpus1.dtb.flush_tlb_asid              0                       # Number of times TLB was flushed by ASID
system.switch_cpus1.dtb.flush_entries               0                       # Number of entries that have been flushed from TLB
system.switch_cpus1.dtb.align_faults                0                       # Number of TLB faults due to alignment restrictions
system.switch_cpus1.dtb.prefetch_faults             0                       # Number of TLB faults due to prefetch
system.switch_cpus1.dtb.domain_faults               0                       # Number of TLB faults due to domain restrictions
system.switch_cpus1.dtb.perms_faults                0                       # Number of TLB faults due to permissions restrictions
system.switch_cpus1.dtb.read_accesses               0                       # DTB read accesses
system.switch_cpus1.dtb.write_accesses              0                       # DTB write accesses
system.switch_cpus1.dtb.inst_accesses               0                       # ITB inst accesses
system.switch_cpus1.dtb.hits                        0                       # DTB hits
system.switch_cpus1.dtb.misses                      0                       # DTB misses
system.switch_cpus1.dtb.accesses                    0                       # DTB accesses
system.switch_cpus1.itb.inst_hits                   0                       # ITB inst hits
system.switch_cpus1.itb.inst_misses                 0                       # ITB inst misses
system.switch_cpus1.itb.read_hits                   0                       # DTB read hits
system.switch_cpus1.itb.read_misses                 0                       # DTB read misses
system.switch_cpus1.itb.write_hits                  0                       # DTB write hits
system.switch_cpus1.itb.write_misses                0                       # DTB write misses
system.switch_cpus1.itb.flush_tlb                   0                       # Number of times complete TLB was flushed
system.switch_cpus1.itb.flush_tlb_mva               0                       # Number of times TLB was flushed by MVA
system.switch_cpus1.itb.flush_tlb_mva_asid            0                       # Number of times TLB was flushed by MVA & ASID
system.switch_cpus1.itb.flush_tlb_asid              0                       # Number of times TLB was flushed by ASID
system.switch_cpus1.itb.flush_entries               0                       # Number of entries that have been flushed from TLB
system.switch_cpus1.itb.align_faults                0                       # Number of TLB faults due to alignment restrictions
system.switch_cpus1.itb.prefetch_faults             0                       # Number of TLB faults due to prefetch
system.switch_cpus1.itb.domain_faults               0                       # Number of TLB faults due to domain restrictions
system.switch_cpus1.itb.perms_faults                0                       # Number of TLB faults due to permissions restrictions
system.switch_cpus1.itb.read_accesses               0                       # DTB read accesses
system.switch_cpus1.itb.write_accesses              0                       # DTB write accesses
system.switch_cpus1.itb.inst_accesses               0                       # ITB inst accesses
system.switch_cpus1.itb.hits                        0                       # DTB hits
system.switch_cpus1.itb.misses                      0                       # DTB misses
system.switch_cpus1.itb.accesses                    0                       # DTB accesses
system.cpu1.workload.num_syscalls                   5                       # Number of system calls
system.switch_cpus1.numCycles                24713258                       # number of cpu cycles simulated
system.switch_cpus1.numWorkItemsStarted             0                       # number of work items this cpu started
system.switch_cpus1.numWorkItemsCompleted            0                       # number of work items this cpu completed
system.switch_cpus1.BPredUnit.lookups         1948208                       # Number of BP lookups
system.switch_cpus1.BPredUnit.condPredicted      1596936                       # Number of conditional branches predicted
system.switch_cpus1.BPredUnit.condIncorrect       192866                       # Number of conditional branches incorrect
system.switch_cpus1.BPredUnit.BTBLookups       817246                       # Number of BTB lookups
system.switch_cpus1.BPredUnit.BTBHits          759924                       # Number of BTB hits
system.switch_cpus1.BPredUnit.BTBCorrect            0                       # Number of correct BTB predictions (this stat may not work properly.
system.switch_cpus1.BPredUnit.usedRAS          200600                       # Number of times the RAS was used to get a target.
system.switch_cpus1.BPredUnit.RASInCorrect         8752                       # Number of incorrect RAS predictions.
system.switch_cpus1.fetch.icacheStallCycles     18631876                       # Number of cycles fetch is stalled on an Icache miss
system.switch_cpus1.fetch.Insts              11076066                       # Number of instructions fetch has processed
system.switch_cpus1.fetch.Branches            1948208                       # Number of branches that fetch encountered
system.switch_cpus1.fetch.predictedBranches       960524                       # Number of branches that fetch has predicted taken
system.switch_cpus1.fetch.Cycles              2435518                       # Number of cycles fetch has run and was not squashing or blocked
system.switch_cpus1.fetch.SquashCycles         546685                       # Number of cycles fetch has spent squashing
system.switch_cpus1.fetch.BlockedCycles        981882                       # Number of cycles fetch has spent blocked
system.switch_cpus1.fetch.CacheLines          1149074                       # Number of cache lines fetched
system.switch_cpus1.fetch.IcacheSquashes       191373                       # Number of outstanding Icache misses that were squashed
system.switch_cpus1.fetch.rateDist::samples     22399924                       # Number of instructions fetched each cycle (Total)
system.switch_cpus1.fetch.rateDist::mean     0.604734                       # Number of instructions fetched each cycle (Total)
system.switch_cpus1.fetch.rateDist::stdev     1.951170                       # Number of instructions fetched each cycle (Total)
system.switch_cpus1.fetch.rateDist::underflows            0      0.00%      0.00% # Number of instructions fetched each cycle (Total)
system.switch_cpus1.fetch.rateDist::0        19964406     89.13%     89.13% # Number of instructions fetched each cycle (Total)
system.switch_cpus1.fetch.rateDist::1          263566      1.18%     90.30% # Number of instructions fetched each cycle (Total)
system.switch_cpus1.fetch.rateDist::2          304930      1.36%     91.67% # Number of instructions fetched each cycle (Total)
system.switch_cpus1.fetch.rateDist::3          168268      0.75%     92.42% # Number of instructions fetched each cycle (Total)
system.switch_cpus1.fetch.rateDist::4          191235      0.85%     93.27% # Number of instructions fetched each cycle (Total)
system.switch_cpus1.fetch.rateDist::5          107433      0.48%     93.75% # Number of instructions fetched each cycle (Total)
system.switch_cpus1.fetch.rateDist::6           73214      0.33%     94.08% # Number of instructions fetched each cycle (Total)
system.switch_cpus1.fetch.rateDist::7          188606      0.84%     94.92% # Number of instructions fetched each cycle (Total)
system.switch_cpus1.fetch.rateDist::8         1138266      5.08%    100.00% # Number of instructions fetched each cycle (Total)
system.switch_cpus1.fetch.rateDist::overflows            0      0.00%    100.00% # Number of instructions fetched each cycle (Total)
system.switch_cpus1.fetch.rateDist::min_value            0                       # Number of instructions fetched each cycle (Total)
system.switch_cpus1.fetch.rateDist::max_value            8                       # Number of instructions fetched each cycle (Total)
system.switch_cpus1.fetch.rateDist::total     22399924                       # Number of instructions fetched each cycle (Total)
system.switch_cpus1.fetch.branchRate         0.078833                       # Number of branch fetches per cycle
system.switch_cpus1.fetch.rate               0.448183                       # Number of inst fetches per cycle
system.switch_cpus1.decode.IdleCycles        18477662                       # Number of cycles decode is idle
system.switch_cpus1.decode.BlockedCycles      1139387                       # Number of cycles decode is blocked
system.switch_cpus1.decode.RunCycles          2414457                       # Number of cycles decode is running
system.switch_cpus1.decode.UnblockCycles        19805                       # Number of cycles decode is unblocking
system.switch_cpus1.decode.SquashCycles        348611                       # Number of cycles decode is squashing
system.switch_cpus1.decode.BranchResolved       316536                       # Number of times decode resolved a branch
system.switch_cpus1.decode.BranchMispred         2037                       # Number of times decode detected a branch misprediction
system.switch_cpus1.decode.DecodedInsts      13520218                       # Number of instructions handled by decode
system.switch_cpus1.decode.SquashedInsts        10595                       # Number of squashed instructions handled by decode
system.switch_cpus1.rename.SquashCycles        348611                       # Number of cycles rename is squashing
system.switch_cpus1.rename.IdleCycles        18508248                       # Number of cycles rename is idle
system.switch_cpus1.rename.BlockCycles         386719                       # Number of cycles rename is blocking
system.switch_cpus1.rename.serializeStallCycles       668837                       # count of cycles rename stalled for serializing inst
system.switch_cpus1.rename.RunCycles          2404690                       # Number of cycles rename is running
system.switch_cpus1.rename.UnblockCycles        82817                       # Number of cycles rename is unblocking
system.switch_cpus1.rename.RenamedInsts      13510824                       # Number of instructions processed by rename
system.switch_cpus1.rename.ROBFullEvents           24                       # Number of times rename has blocked due to ROB full
system.switch_cpus1.rename.IQFullEvents         20374                       # Number of times rename has blocked due to IQ full
system.switch_cpus1.rename.LSQFullEvents        38689                       # Number of times rename has blocked due to LSQ full
system.switch_cpus1.rename.RenamedOperands     18778849                       # Number of destination operands rename has renamed
system.switch_cpus1.rename.RenameLookups     62906947                       # Number of register rename lookups that rename has made
system.switch_cpus1.rename.int_rename_lookups     62906947                       # Number of integer rename lookups
system.switch_cpus1.rename.CommittedMaps     16027005                       # Number of HB maps that are committed
system.switch_cpus1.rename.UndoneMaps         2751799                       # Number of HB maps that are undone due to squashing
system.switch_cpus1.rename.serializingInsts         3591                       # count of serializing insts renamed
system.switch_cpus1.rename.tempSerializingInsts         2027                       # count of temporary serializing insts renamed
system.switch_cpus1.rename.skidInsts           225186                       # count of insts added to the skid buffer
system.switch_cpus1.memDep0.insertedLoads      1293111                       # Number of loads inserted to the mem dependence unit.
system.switch_cpus1.memDep0.insertedStores       703012                       # Number of stores inserted to the mem dependence unit.
system.switch_cpus1.memDep0.conflictingLoads        17870                       # Number of conflicting loads.
system.switch_cpus1.memDep0.conflictingStores       155418                       # Number of conflicting stores.
system.switch_cpus1.iq.iqInstsAdded          13488951                       # Number of instructions added to the IQ (excludes non-spec)
system.switch_cpus1.iq.iqNonSpecInstsAdded         3601                       # Number of non-speculative instructions added to the IQ
system.switch_cpus1.iq.iqInstsIssued         12752702                       # Number of instructions issued
system.switch_cpus1.iq.iqSquashedInstsIssued        18649                       # Number of squashed instructions issued
system.switch_cpus1.iq.iqSquashedInstsExamined      1682774                       # Number of squashed instructions iterated over during squash; mainly for profiling
system.switch_cpus1.iq.iqSquashedOperandsExamined      3884217                       # Number of squashed operands that are examined and possibly removed from graph
system.switch_cpus1.iq.iqSquashedNonSpecRemoved          450                       # Number of squashed non-spec instructions that were removed
system.switch_cpus1.iq.issued_per_cycle::samples     22399924                       # Number of insts issued each cycle
system.switch_cpus1.iq.issued_per_cycle::mean     0.569319                       # Number of insts issued each cycle
system.switch_cpus1.iq.issued_per_cycle::stdev     1.260468                       # Number of insts issued each cycle
system.switch_cpus1.iq.issued_per_cycle::underflows            0      0.00%      0.00% # Number of insts issued each cycle
system.switch_cpus1.iq.issued_per_cycle::0     17026904     76.01%     76.01% # Number of insts issued each cycle
system.switch_cpus1.iq.issued_per_cycle::1      2161497      9.65%     85.66% # Number of insts issued each cycle
system.switch_cpus1.iq.issued_per_cycle::2      1162486      5.19%     90.85% # Number of insts issued each cycle
system.switch_cpus1.iq.issued_per_cycle::3       802171      3.58%     94.43% # Number of insts issued each cycle
system.switch_cpus1.iq.issued_per_cycle::4       701404      3.13%     97.56% # Number of insts issued each cycle
system.switch_cpus1.iq.issued_per_cycle::5       358775      1.60%     99.17% # Number of insts issued each cycle
system.switch_cpus1.iq.issued_per_cycle::6        88547      0.40%     99.56% # Number of insts issued each cycle
system.switch_cpus1.iq.issued_per_cycle::7        56173      0.25%     99.81% # Number of insts issued each cycle
system.switch_cpus1.iq.issued_per_cycle::8        41967      0.19%    100.00% # Number of insts issued each cycle
system.switch_cpus1.iq.issued_per_cycle::overflows            0      0.00%    100.00% # Number of insts issued each cycle
system.switch_cpus1.iq.issued_per_cycle::min_value            0                       # Number of insts issued each cycle
system.switch_cpus1.iq.issued_per_cycle::max_value            8                       # Number of insts issued each cycle
system.switch_cpus1.iq.issued_per_cycle::total     22399924                       # Number of insts issued each cycle
system.switch_cpus1.iq.fu_full::No_OpClass            0      0.00%      0.00% # attempts to use FU when none available
system.switch_cpus1.iq.fu_full::IntAlu           3242     11.69%     11.69% # attempts to use FU when none available
system.switch_cpus1.iq.fu_full::IntMult             0      0.00%     11.69% # attempts to use FU when none available
system.switch_cpus1.iq.fu_full::IntDiv              0      0.00%     11.69% # attempts to use FU when none available
system.switch_cpus1.iq.fu_full::FloatAdd            0      0.00%     11.69% # attempts to use FU when none available
system.switch_cpus1.iq.fu_full::FloatCmp            0      0.00%     11.69% # attempts to use FU when none available
system.switch_cpus1.iq.fu_full::FloatCvt            0      0.00%     11.69% # attempts to use FU when none available
system.switch_cpus1.iq.fu_full::FloatMult            0      0.00%     11.69% # attempts to use FU when none available
system.switch_cpus1.iq.fu_full::FloatDiv            0      0.00%     11.69% # attempts to use FU when none available
system.switch_cpus1.iq.fu_full::FloatSqrt            0      0.00%     11.69% # attempts to use FU when none available
system.switch_cpus1.iq.fu_full::SimdAdd             0      0.00%     11.69% # attempts to use FU when none available
system.switch_cpus1.iq.fu_full::SimdAddAcc            0      0.00%     11.69% # attempts to use FU when none available
system.switch_cpus1.iq.fu_full::SimdAlu             0      0.00%     11.69% # attempts to use FU when none available
system.switch_cpus1.iq.fu_full::SimdCmp             0      0.00%     11.69% # attempts to use FU when none available
system.switch_cpus1.iq.fu_full::SimdCvt             0      0.00%     11.69% # attempts to use FU when none available
system.switch_cpus1.iq.fu_full::SimdMisc            0      0.00%     11.69% # attempts to use FU when none available
system.switch_cpus1.iq.fu_full::SimdMult            0      0.00%     11.69% # attempts to use FU when none available
system.switch_cpus1.iq.fu_full::SimdMultAcc            0      0.00%     11.69% # attempts to use FU when none available
system.switch_cpus1.iq.fu_full::SimdShift            0      0.00%     11.69% # attempts to use FU when none available
system.switch_cpus1.iq.fu_full::SimdShiftAcc            0      0.00%     11.69% # attempts to use FU when none available
system.switch_cpus1.iq.fu_full::SimdSqrt            0      0.00%     11.69% # attempts to use FU when none available
system.switch_cpus1.iq.fu_full::SimdFloatAdd            0      0.00%     11.69% # attempts to use FU when none available
system.switch_cpus1.iq.fu_full::SimdFloatAlu            0      0.00%     11.69% # attempts to use FU when none available
system.switch_cpus1.iq.fu_full::SimdFloatCmp            0      0.00%     11.69% # attempts to use FU when none available
system.switch_cpus1.iq.fu_full::SimdFloatCvt            0      0.00%     11.69% # attempts to use FU when none available
system.switch_cpus1.iq.fu_full::SimdFloatDiv            0      0.00%     11.69% # attempts to use FU when none available
system.switch_cpus1.iq.fu_full::SimdFloatMisc            0      0.00%     11.69% # attempts to use FU when none available
system.switch_cpus1.iq.fu_full::SimdFloatMult            0      0.00%     11.69% # attempts to use FU when none available
system.switch_cpus1.iq.fu_full::SimdFloatMultAcc            0      0.00%     11.69% # attempts to use FU when none available
system.switch_cpus1.iq.fu_full::SimdFloatSqrt            0      0.00%     11.69% # attempts to use FU when none available
system.switch_cpus1.iq.fu_full::MemRead         12022     43.34%     55.03% # attempts to use FU when none available
system.switch_cpus1.iq.fu_full::MemWrite        12476     44.97%    100.00% # attempts to use FU when none available
system.switch_cpus1.iq.fu_full::IprAccess            0      0.00%    100.00% # attempts to use FU when none available
system.switch_cpus1.iq.fu_full::InstPrefetch            0      0.00%    100.00% # attempts to use FU when none available
system.switch_cpus1.iq.FU_type_0::No_OpClass            0      0.00%      0.00% # Type of FU issued
system.switch_cpus1.iq.FU_type_0::IntAlu     10672759     83.69%     83.69% # Type of FU issued
system.switch_cpus1.iq.FU_type_0::IntMult       198976      1.56%     85.25% # Type of FU issued
system.switch_cpus1.iq.FU_type_0::IntDiv            0      0.00%     85.25% # Type of FU issued
system.switch_cpus1.iq.FU_type_0::FloatAdd            0      0.00%     85.25% # Type of FU issued
system.switch_cpus1.iq.FU_type_0::FloatCmp            0      0.00%     85.25% # Type of FU issued
system.switch_cpus1.iq.FU_type_0::FloatCvt            0      0.00%     85.25% # Type of FU issued
system.switch_cpus1.iq.FU_type_0::FloatMult            0      0.00%     85.25% # Type of FU issued
system.switch_cpus1.iq.FU_type_0::FloatDiv            0      0.00%     85.25% # Type of FU issued
system.switch_cpus1.iq.FU_type_0::FloatSqrt            0      0.00%     85.25% # Type of FU issued
system.switch_cpus1.iq.FU_type_0::SimdAdd            0      0.00%     85.25% # Type of FU issued
system.switch_cpus1.iq.FU_type_0::SimdAddAcc            0      0.00%     85.25% # Type of FU issued
system.switch_cpus1.iq.FU_type_0::SimdAlu            0      0.00%     85.25% # Type of FU issued
[...]
system.cpu7.icache.ReadReq_avg_miss_latency::total 1162152.444444                       # average ReadReq miss latency
system.cpu7.icache.demand_avg_miss_latency::switch_cpus7.inst 1162152.444444                       # average overall miss latency
system.cpu7.icache.demand_avg_miss_latency::total 1162152.444444                       # average overall miss latency
system.cpu7.icache.overall_avg_miss_latency::switch_cpus7.inst 1162152.444444                       # average overall miss latency
system.cpu7.icache.overall_avg_miss_latency::total 1162152.444444                       # average overall miss latency
system.cpu7.icache.blocked_cycles::no_mshrs        77442                       # number of cycles access was blocked
system.cpu7.icache.blocked_cycles::no_targets            0                       # number of cycles access was blocked
system.cpu7.icache.blocked::no_mshrs                1                       # number of cycles access was blocked
system.cpu7.icache.blocked::no_targets              0                       # number of cycles access was blocked
system.cpu7.icache.avg_blocked_cycles::no_mshrs        77442                       # average number of cycles each access was blocked
system.cpu7.icache.avg_blocked_cycles::no_targets          nan                       # average number of cycles each access was blocked
system.cpu7.icache.fast_writes                      0                       # number of fast writes performed
system.cpu7.icache.cache_copies                     0                       # number of cache copies performed
system.cpu7.icache.ReadReq_mshr_hits::switch_cpus7.inst           21                       # number of ReadReq MSHR hits
system.cpu7.icache.ReadReq_mshr_hits::total           21                       # number of ReadReq MSHR hits
system.cpu7.icache.demand_mshr_hits::switch_cpus7.inst           21                       # number of demand (read+write) MSHR hits
system.cpu7.icache.demand_mshr_hits::total           21                       # number of demand (read+write) MSHR hits
system.cpu7.icache.overall_mshr_hits::switch_cpus7.inst           21                       # number of overall MSHR hits
system.cpu7.icache.overall_mshr_hits::total           21                       # number of overall MSHR hits
system.cpu7.icache.ReadReq_mshr_misses::switch_cpus7.inst           33                       # number of ReadReq MSHR misses
system.cpu7.icache.ReadReq_mshr_misses::total           33                       # number of ReadReq MSHR misses
system.cpu7.icache.demand_mshr_misses::switch_cpus7.inst           33                       # number of demand (read+write) MSHR misses
system.cpu7.icache.demand_mshr_misses::total           33                       # number of demand (read+write) MSHR misses
system.cpu7.icache.overall_mshr_misses::switch_cpus7.inst           33                       # number of overall MSHR misses
system.cpu7.icache.overall_mshr_misses::total           33                       # number of overall MSHR misses
system.cpu7.icache.ReadReq_mshr_miss_latency::switch_cpus7.inst     42885914                       # number of ReadReq MSHR miss cycles
system.cpu7.icache.ReadReq_mshr_miss_latency::total     42885914                       # number of ReadReq MSHR miss cycles
system.cpu7.icache.demand_mshr_miss_latency::switch_cpus7.inst     42885914                       # number of demand (read+write) MSHR miss cycles
system.cpu7.icache.demand_mshr_miss_latency::total     42885914                       # number of demand (read+write) MSHR miss cycles
system.cpu7.icache.overall_mshr_miss_latency::switch_cpus7.inst     42885914                       # number of overall MSHR miss cycles
system.cpu7.icache.overall_mshr_miss_latency::total     42885914                       # number of overall MSHR miss cycles
system.cpu7.icache.ReadReq_mshr_miss_rate::switch_cpus7.inst     0.000029                       # mshr miss rate for ReadReq accesses
system.cpu7.icache.ReadReq_mshr_miss_rate::total     0.000029                       # mshr miss rate for ReadReq accesses
system.cpu7.icache.demand_mshr_miss_rate::switch_cpus7.inst     0.000029                       # mshr miss rate for demand accesses
system.cpu7.icache.demand_mshr_miss_rate::total     0.000029                       # mshr miss rate for demand accesses
system.cpu7.icache.overall_mshr_miss_rate::switch_cpus7.inst     0.000029                       # mshr miss rate for overall accesses
system.cpu7.icache.overall_mshr_miss_rate::total     0.000029                       # mshr miss rate for overall accesses
system.cpu7.icache.ReadReq_avg_mshr_miss_latency::switch_cpus7.inst 1299573.151515                       # average ReadReq mshr miss latency
system.cpu7.icache.ReadReq_avg_mshr_miss_latency::total 1299573.151515                       # average ReadReq mshr miss latency
system.cpu7.icache.demand_avg_mshr_miss_latency::switch_cpus7.inst 1299573.151515                       # average overall mshr miss latency
system.cpu7.icache.demand_avg_mshr_miss_latency::total 1299573.151515                       # average overall mshr miss latency
system.cpu7.icache.overall_avg_mshr_miss_latency::switch_cpus7.inst 1299573.151515                       # average overall mshr miss latency
system.cpu7.icache.overall_avg_mshr_miss_latency::total 1299573.151515                       # average overall mshr miss latency
system.cpu7.icache.no_allocate_misses               0                       # Number of misses that were no-allocate
system.cpu7.dcache.replacements                  7503                       # number of replacements
system.cpu7.dcache.tagsinuse                      256                       # Cycle average of tags in use
system.cpu7.dcache.total_refs               405291070                       # Total number of references to valid blocks.
system.cpu7.dcache.sampled_refs                  7759                       # Sample count of references to valid blocks.
system.cpu7.dcache.avg_refs              52234.961980                       # Average number of references to valid blocks.
system.cpu7.dcache.warmup_cycle                     0                       # Cycle when the warmup percentage was hit.
system.cpu7.dcache.occ_blocks::switch_cpus7.data   111.046035                       # Average occupied blocks per requestor
system.cpu7.dcache.occ_blocks::cpu7.data   144.953965                       # Average occupied blocks per requestor
system.cpu7.dcache.occ_percent::switch_cpus7.data     0.433774                       # Average percentage of cache occupancy
system.cpu7.dcache.occ_percent::cpu7.data     0.566226                       # Average percentage of cache occupancy
system.cpu7.dcache.occ_percent::total               1                       # Average percentage of cache occupancy
system.cpu7.dcache.ReadReq_hits::switch_cpus7.data      2943265                       # number of ReadReq hits
system.cpu7.dcache.ReadReq_hits::total        2943265                       # number of ReadReq hits
system.cpu7.dcache.WriteReq_hits::switch_cpus7.data      1611045                       # number of WriteReq hits
system.cpu7.dcache.WriteReq_hits::total       1611045                       # number of WriteReq hits
system.cpu7.dcache.LoadLockedReq_hits::switch_cpus7.data          786                       # number of LoadLockedReq hits
system.cpu7.dcache.LoadLockedReq_hits::total          786                       # number of LoadLockedReq hits
system.cpu7.dcache.StoreCondReq_hits::switch_cpus7.data          784                       # number of StoreCondReq hits
system.cpu7.dcache.StoreCondReq_hits::total          784                       # number of StoreCondReq hits
system.cpu7.dcache.demand_hits::switch_cpus7.data      4554310                       # number of demand (read+write) hits
system.cpu7.dcache.demand_hits::total         4554310                       # number of demand (read+write) hits
system.cpu7.dcache.overall_hits::switch_cpus7.data      4554310                       # number of overall hits
system.cpu7.dcache.overall_hits::total        4554310                       # number of overall hits
system.cpu7.dcache.ReadReq_misses::switch_cpus7.data        26893                       # number of ReadReq misses
system.cpu7.dcache.ReadReq_misses::total        26893                       # number of ReadReq misses
system.cpu7.dcache.WriteReq_misses::switch_cpus7.data           20                       # number of WriteReq misses
system.cpu7.dcache.WriteReq_misses::total           20                       # number of WriteReq misses
system.cpu7.dcache.demand_misses::switch_cpus7.data        26913                       # number of demand (read+write) misses
system.cpu7.dcache.demand_misses::total         26913                       # number of demand (read+write) misses
system.cpu7.dcache.overall_misses::switch_cpus7.data        26913                       # number of overall misses
system.cpu7.dcache.overall_misses::total        26913                       # number of overall misses
system.cpu7.dcache.ReadReq_miss_latency::switch_cpus7.data   6413619631                       # number of ReadReq miss cycles
system.cpu7.dcache.ReadReq_miss_latency::total   6413619631                       # number of ReadReq miss cycles
system.cpu7.dcache.WriteReq_miss_latency::switch_cpus7.data      1543059                       # number of WriteReq miss cycles
system.cpu7.dcache.WriteReq_miss_latency::total      1543059                       # number of WriteReq miss cycles
system.cpu7.dcache.demand_miss_latency::switch_cpus7.data   6415162690                       # number of demand (read+write) miss cycles
system.cpu7.dcache.demand_miss_latency::total   6415162690                       # number of demand (read+write) miss cycles
system.cpu7.dcache.overall_miss_latency::switch_cpus7.data   6415162690                       # number of overall miss cycles
system.cpu7.dcache.overall_miss_latency::total   6415162690                       # number of overall miss cycles
system.cpu7.dcache.ReadReq_accesses::switch_cpus7.data      2970158                       # number of ReadReq accesses(hits+misses)
system.cpu7.dcache.ReadReq_accesses::total      2970158                       # number of ReadReq accesses(hits+misses)
system.cpu7.dcache.WriteReq_accesses::switch_cpus7.data      1611065                       # number of WriteReq accesses(hits+misses)
system.cpu7.dcache.WriteReq_accesses::total      1611065                       # number of WriteReq accesses(hits+misses)
system.cpu7.dcache.LoadLockedReq_accesses::switch_cpus7.data          786                       # number of LoadLockedReq accesses(hits+misses)
system.cpu7.dcache.LoadLockedReq_accesses::total          786                       # number of LoadLockedReq accesses(hits+misses)
system.cpu7.dcache.StoreCondReq_accesses::switch_cpus7.data          784                       # number of StoreCondReq accesses(hits+misses)
system.cpu7.dcache.StoreCondReq_accesses::total          784                       # number of StoreCondReq accesses(hits+misses)
system.cpu7.dcache.demand_accesses::switch_cpus7.data      4581223                       # number of demand (read+write) accesses
system.cpu7.dcache.demand_accesses::total      4581223                       # number of demand (read+write) accesses
system.cpu7.dcache.overall_accesses::switch_cpus7.data      4581223                       # number of overall (read+write) accesses
system.cpu7.dcache.overall_accesses::total      4581223                       # number of overall (read+write) accesses
system.cpu7.dcache.ReadReq_miss_rate::switch_cpus7.data     0.009054                       # miss rate for ReadReq accesses
system.cpu7.dcache.ReadReq_miss_rate::total     0.009054                       # miss rate for ReadReq accesses
system.cpu7.dcache.WriteReq_miss_rate::switch_cpus7.data     0.000012                       # miss rate for WriteReq accesses
system.cpu7.dcache.WriteReq_miss_rate::total     0.000012                       # miss rate for WriteReq accesses
system.cpu7.dcache.demand_miss_rate::switch_cpus7.data     0.005875                       # miss rate for demand accesses
system.cpu7.dcache.demand_miss_rate::total     0.005875                       # miss rate for demand accesses
system.cpu7.dcache.overall_miss_rate::switch_cpus7.data     0.005875                       # miss rate for overall accesses
system.cpu7.dcache.overall_miss_rate::total     0.005875                       # miss rate for overall accesses
system.cpu7.dcache.ReadReq_avg_miss_latency::switch_cpus7.data 238486.581304                       # average ReadReq miss latency
system.cpu7.dcache.ReadReq_avg_miss_latency::total 238486.581304                       # average ReadReq miss latency
system.cpu7.dcache.WriteReq_avg_miss_latency::switch_cpus7.data 77152.950000                       # average WriteReq miss latency
system.cpu7.dcache.WriteReq_avg_miss_latency::total 77152.950000                       # average WriteReq miss latency
system.cpu7.dcache.demand_avg_miss_latency::switch_cpus7.data 238366.688589                       # average overall miss latency
system.cpu7.dcache.demand_avg_miss_latency::total 238366.688589                       # average overall miss latency
system.cpu7.dcache.overall_avg_miss_latency::switch_cpus7.data 238366.688589                       # average overall miss latency
system.cpu7.dcache.overall_avg_miss_latency::total 238366.688589                       # average overall miss latency
system.cpu7.dcache.blocked_cycles::no_mshrs            0                       # number of cycles access was blocked
system.cpu7.dcache.blocked_cycles::no_targets            0                       # number of cycles access was blocked
system.cpu7.dcache.blocked::no_mshrs                0                       # number of cycles access was blocked
system.cpu7.dcache.blocked::no_targets              0                       # number of cycles access was blocked
system.cpu7.dcache.avg_blocked_cycles::no_mshrs          nan                       # average number of cycles each access was blocked
system.cpu7.dcache.avg_blocked_cycles::no_targets          nan                       # average number of cycles each access was blocked
system.cpu7.dcache.fast_writes                      0                       # number of fast writes performed
system.cpu7.dcache.cache_copies                     0                       # number of cache copies performed
system.cpu7.dcache.writebacks::writebacks         2137                       # number of writebacks
system.cpu7.dcache.writebacks::total             2137                       # number of writebacks
system.cpu7.dcache.ReadReq_mshr_hits::switch_cpus7.data        19396                       # number of ReadReq MSHR hits
system.cpu7.dcache.ReadReq_mshr_hits::total        19396                       # number of ReadReq MSHR hits
system.cpu7.dcache.WriteReq_mshr_hits::switch_cpus7.data           14                       # number of WriteReq MSHR hits
system.cpu7.dcache.WriteReq_mshr_hits::total           14                       # number of WriteReq MSHR hits
system.cpu7.dcache.demand_mshr_hits::switch_cpus7.data        19410                       # number of demand (read+write) MSHR hits
system.cpu7.dcache.demand_mshr_hits::total        19410                       # number of demand (read+write) MSHR hits
system.cpu7.dcache.overall_mshr_hits::switch_cpus7.data        19410                       # number of overall MSHR hits
system.cpu7.dcache.overall_mshr_hits::total        19410                       # number of overall MSHR hits
system.cpu7.dcache.ReadReq_mshr_misses::switch_cpus7.data         7497                       # number of ReadReq MSHR misses
system.cpu7.dcache.ReadReq_mshr_misses::total         7497                       # number of ReadReq MSHR misses
system.cpu7.dcache.WriteReq_mshr_misses::switch_cpus7.data            6                       # number of WriteReq MSHR misses
system.cpu7.dcache.WriteReq_mshr_misses::total            6                       # number of WriteReq MSHR misses
system.cpu7.dcache.demand_mshr_misses::switch_cpus7.data         7503                       # number of demand (read+write) MSHR misses
system.cpu7.dcache.demand_mshr_misses::total         7503                       # number of demand (read+write) MSHR misses
system.cpu7.dcache.overall_mshr_misses::switch_cpus7.data         7503                       # number of overall MSHR misses
system.cpu7.dcache.overall_mshr_misses::total         7503                       # number of overall MSHR misses
system.cpu7.dcache.ReadReq_mshr_miss_latency::switch_cpus7.data   1654831300                       # number of ReadReq MSHR miss cycles
system.cpu7.dcache.ReadReq_mshr_miss_latency::total   1654831300                       # number of ReadReq MSHR miss cycles
system.cpu7.dcache.WriteReq_mshr_miss_latency::switch_cpus7.data       389840                       # number of WriteReq MSHR miss cycles
system.cpu7.dcache.WriteReq_mshr_miss_latency::total       389840                       # number of WriteReq MSHR miss cycles
system.cpu7.dcache.demand_mshr_miss_latency::switch_cpus7.data   1655221140                       # number of demand (read+write) MSHR miss cycles
system.cpu7.dcache.demand_mshr_miss_latency::total   1655221140                       # number of demand (read+write) MSHR miss cycles
system.cpu7.dcache.overall_mshr_miss_latency::switch_cpus7.data   1655221140                       # number of overall MSHR miss cycles
system.cpu7.dcache.overall_mshr_miss_latency::total   1655221140                       # number of overall MSHR miss cycles
system.cpu7.dcache.ReadReq_mshr_miss_rate::switch_cpus7.data     0.002524                       # mshr miss rate for ReadReq accesses
system.cpu7.dcache.ReadReq_mshr_miss_rate::total     0.002524                       # mshr miss rate for ReadReq accesses
system.cpu7.dcache.WriteReq_mshr_miss_rate::switch_cpus7.data     0.000004                       # mshr miss rate for WriteReq accesses
system.cpu7.dcache.WriteReq_mshr_miss_rate::total     0.000004                       # mshr miss rate for WriteReq accesses
system.cpu7.dcache.demand_mshr_miss_rate::switch_cpus7.data     0.001638                       # mshr miss rate for demand accesses
system.cpu7.dcache.demand_mshr_miss_rate::total     0.001638                       # mshr miss rate for demand accesses
system.cpu7.dcache.overall_mshr_miss_rate::switch_cpus7.data     0.001638                       # mshr miss rate for overall accesses
system.cpu7.dcache.overall_mshr_miss_rate::total     0.001638                       # mshr miss rate for overall accesses
system.cpu7.dcache.ReadReq_avg_mshr_miss_latency::switch_cpus7.data 220732.466320                       # average ReadReq mshr miss latency
system.cpu7.dcache.ReadReq_avg_mshr_miss_latency::total 220732.466320                       # average ReadReq mshr miss latency
system.cpu7.dcache.WriteReq_avg_mshr_miss_latency::switch_cpus7.data 64973.333333                       # average WriteReq mshr miss latency
system.cpu7.dcache.WriteReq_avg_mshr_miss_latency::total 64973.333333                       # average WriteReq mshr miss latency
system.cpu7.dcache.demand_avg_mshr_miss_latency::switch_cpus7.data 220607.908836                       # average overall mshr miss latency
system.cpu7.dcache.demand_avg_mshr_miss_latency::total 220607.908836                       # average overall mshr miss latency
system.cpu7.dcache.overall_avg_mshr_miss_latency::switch_cpus7.data 220607.908836                       # average overall mshr miss latency
system.cpu7.dcache.overall_avg_mshr_miss_latency::total 220607.908836                       # average overall mshr miss latency
system.cpu7.dcache.no_allocate_misses               0                       # Number of misses that were no-allocate

---------- End Simulation Statistics   ----------
