gem5 Simulator System.  http://gem5.org
gem5 is copyrighted software; use the --copyright option for details.

gem5 compiled Jan 31 2020 21:24:43
gem5 started Jan 31 2020 21:26:10
gem5 executing on node-0.yangzhou-qv63856.lambda-mpi-pg0.clemson.cloudlab.us
command line: build/ARM/gem5.fast --remote-gdb-port=0 --outdir=/users/yangzhou/GEM5_DRAMSim2/sgx_nic/m5out/detailed_acl-fw.nat-tcp-v4.maglev.lpm_256kB_tp --stats-file=detailed_acl-fw.nat-tcp-v4.maglev.lpm_256kB_tp_stats.txt configs/dramsim2/dramsim2_se.py --cpu-type=detailed --clock=2.4GHz --cacheline_size=128 --caches --l2cache --l2config=private --l2_size=64kB --l2_assoc=16 --fixaddr --rr_nc --split_mshr --split_rport --dramsim2 --tpturnlength=6 --devicecfg=./ext/DRAMSim2/ini/DDR3_micron_16M_8B_x8_sg15.ini --systemcfg=./ext/DRAMSim2/system_tp.ini --outputfile=/dev/null --fast-forward=1000000000 --maxinsts=10000000 --maxtick=2000000000000 --numpids=4 --p0=/users/yangzhou/NF-GEM5/acl-fw --p1=/users/yangzhou/NF-GEM5/nat-tcp-v4 --p2=/users/yangzhou/NF-GEM5/maglev --p3=/users/yangzhou/NF-GEM5/lpm
Global frequency set at 1000000000000 ticks per second
device file: ./ext/DRAMSim2/ini/DDR3_micron_16M_8B_x8_sg15.ini
system file: ./ext/DRAMSim2/system_tp.ini
output file: /dev/null
DEBUGSTR My tpTurnLength is 6
genTrace is 0
finish initializing memory controller
CPU Clock = 2398MHz
DRAM Clock = 1600MHz
Memory Capacity = 16384MB
initialize the layer 4
initialize the layer 4
Switch at instruction count:1000000000
info: Entering event queue @ 0.  Starting simulation...
info: Increasing stack size by one page.
info: Increasing stack size by one page.
info: Increasing stack size by one page.
info: Increasing stack size by one page.
value_t size: 1B
value_t size: 16B
memory size: 4.386990MB
value_t size: 1B
memory size: 51.400196MB
memory size: 4.386990MB
trying to open file /users/yangzhou/ictf2010_100kflow.dat
opening succeeds
trying to open file /users/yangzhou/ictf2010_100kflow.dat
opening succeeds
trying to open file /users/yangzhou/ictf2010_100kflow.dat
opening succeeds
trying to open file /users/yangzhou/ictf2010_100kflow.dat
opening succeeds
Reading pkt trace done!
average pkt size = 607.092021
nat-tcp-v4 packets processed: 64
nat-tcp-v4 packets processed: 128
nat-tcp-v4 packets processed: 192
nat-tcp-v4 packets processed: 256
nat-tcp-v4 packets processed: 320
Reading pkt trace done!
average pkt size = 607.092021
nat-tcp-v4 packets processed: 384
nat-tcp-v4 packets processed: 448
nat-tcp-v4 packets processed: 512
nat-tcp-v4 packets processed: 576
nat-tcp-v4 packets processed: 640
nat-tcp-v4 packets processed: 704
nat-tcp-v4 packets processed: 768
nat-tcp-v4 packets processed: 832
nat-tcp-v4 packets processed: 896
nat-tcp-v4 packets processed: 960
nat-tcp-v4 packets processed: 1024
nat-tcp-v4 packets processed: 1088
nat-tcp-v4 packets processed: 1152
nat-tcp-v4 packets processed: 1216
Reading pkt trace done!
average pkt size = 607.092021
nat-tcp-v4 packets processed: 1280
maglev packets processed: 64
nat-tcp-v4 packets processed: 1344
maglev packets processed: 128
nat-tcp-v4 packets processed: 1408
maglev packets processed: 192
nat-tcp-v4 packets processed: 1472
maglev packets processed: 256
nat-tcp-v4 packets processed: 1536
maglev packets processed: 320
maglev packets processed: 384
nat-tcp-v4 packets processed: 1600
maglev packets processed: 448
nat-tcp-v4 packets processed: 1664
maglev packets processed: 512
nat-tcp-v4 packets processed: 1728
maglev packets processed: 576
nat-tcp-v4 packets processed: 1792
maglev packets processed: 640
nat-tcp-v4 packets processed: 1856
maglev packets processed: 704
nat-tcp-v4 packets processed: 1920
maglev packets processed: 768
nat-tcp-v4 packets processed: 1984
maglev packets processed: 832
nat-tcp-v4 packets processed: 2048
maglev packets processed: 896
nat-tcp-v4 packets processed: 2112
maglev packets processed: 960
maglev packets processed: 1024
nat-tcp-v4 packets processed: 2176
maglev packets processed: 1088
nat-tcp-v4 packets processed: 2240
maglev packets processed: 1152
nat-tcp-v4 packets processed: 2304
maglev packets processed: 1216
nat-tcp-v4 packets processed: 2368
maglev packets processed: 1280
nat-tcp-v4 packets processed: 2432
maglev packets processed: 1344
nat-tcp-v4 packets processed: 2496
maglev packets processed: 1408
nat-tcp-v4 packets processed: 2560
maglev packets processed: 1472
nat-tcp-v4 packets processed: 2624
maglev packets processed: 1536
nat-tcp-v4 packets processed: 2688
maglev packets processed: 1600
nat-tcp-v4 packets processed: 2752
maglev packets processed: 1664
nat-tcp-v4 packets processed: 2816
maglev packets processed: 1728
nat-tcp-v4 packets processed: 2880
maglev packets processed: 1792
nat-tcp-v4 packets processed: 2944
maglev packets processed: 1856
nat-tcp-v4 packets processed: 3008
maglev packets processed: 1920
maglev packets processed: 1984
nat-tcp-v4 packets processed: 3072
maglev packets processed: 2048
nat-tcp-v4 packets processed: 3136
maglev packets processed: 2112
nat-tcp-v4 packets processed: 3200
maglev packets processed: 2176
nat-tcp-v4 packets processed: 3264
maglev packets processed: 2240
nat-tcp-v4 packets processed: 3328
maglev packets processed: 2304
nat-tcp-v4 packets processed: 3392
maglev packets processed: 2368
nat-tcp-v4 packets processed: 3456
maglev packets processed: 2432
nat-tcp-v4 packets processed: 3520
maglev packets processed: 2496
nat-tcp-v4 packets processed: 3584
maglev packets processed: 2560
nat-tcp-v4 packets processed: 3648
maglev packets processed: 2624
nat-tcp-v4 packets processed: 3712
maglev packets processed: 2688
maglev packets processed: 2752
nat-tcp-v4 packets processed: 3776
maglev packets processed: 2816
nat-tcp-v4 packets processed: 3840
maglev packets processed: 2880
nat-tcp-v4 packets processed: 3904
maglev packets processed: 2944
nat-tcp-v4 packets processed: 3968
Reading pkt trace done!
average pkt size = 607.092021
maglev packets processed: 3008
nat-tcp-v4 packets processed: 4032
lpm packets processed: 64
maglev packets processed: 3072
lpm packets processed: 128
nat-tcp-v4 packets processed: 4096
maglev packets processed: 3136
lpm packets processed: 192
nat-tcp-v4 packets processed: 4160
maglev packets processed: 3200
lpm packets processed: 256
nat-tcp-v4 packets processed: 4224
maglev packets processed: 3264
lpm packets processed: 320
nat-tcp-v4 packets processed: 4288
maglev packets processed: 3328
lpm packets processed: 384
nat-tcp-v4 packets processed: 4352
maglev packets processed: 3392
lpm packets processed: 448
nat-tcp-v4 packets processed: 4416
maglev packets processed: 3456
lpm packets processed: 512
nat-tcp-v4 packets processed: 4480
maglev packets processed: 3520
lpm packets processed: 576
maglev packets processed: 3584
nat-tcp-v4 packets processed: 4544
lpm packets processed: 640
maglev packets processed: 3648
nat-tcp-v4 packets processed: 4608
lpm packets processed: 704
maglev packets processed: 3712
nat-tcp-v4 packets processed: 4672
lpm packets processed: 768
maglev packets processed: 3776
lpm packets processed: 832
nat-tcp-v4 packets processed: 4736
maglev packets processed: 3840
lpm packets processed: 896
nat-tcp-v4 packets processed: 4800
maglev packets processed: 3904
lpm packets processed: 960
nat-tcp-v4 packets processed: 4864
maglev packets processed: 3968
lpm packets processed: 1024
nat-tcp-v4 packets processed: 4928
maglev packets processed: 4032
lpm packets processed: 1088
nat-tcp-v4 packets processed: 4992
maglev packets processed: 4096
lpm packets processed: 1152
nat-tcp-v4 packets processed: 5056
maglev packets processed: 4160
lpm packets processed: 1216
nat-tcp-v4 packets processed: 5120
maglev packets processed: 4224
lpm packets processed: 1280
nat-tcp-v4 packets processed: 5184
maglev packets processed: 4288
lpm packets processed: 1344
maglev packets processed: 4352
nat-tcp-v4 packets processed: 5248
lpm packets processed: 1408
maglev packets processed: 4416
nat-tcp-v4 packets processed: 5312
lpm packets processed: 1472
maglev packets processed: 4480
lpm packets processed: 1536
nat-tcp-v4 packets processed: 5376
maglev packets processed: 4544
lpm packets processed: 1600
nat-tcp-v4 packets processed: 5440
maglev packets processed: 4608
lpm packets processed: 1664
nat-tcp-v4 packets processed: 5504
maglev packets processed: 4672
lpm packets processed: 1728
nat-tcp-v4 packets processed: 5568
maglev packets processed: 4736
lpm packets processed: 1792
nat-tcp-v4 packets processed: 5632
maglev packets processed: 4800
lpm packets processed: 1856
nat-tcp-v4 packets processed: 5696
maglev packets processed: 4864
lpm packets processed: 1920
nat-tcp-v4 packets processed: 5760
maglev packets processed: 4928
lpm packets processed: 1984
nat-tcp-v4 packets processed: 5824
maglev packets processed: 4992
lpm packets processed: 2048
nat-tcp-v4 packets processed: 5888
maglev packets processed: 5056
lpm packets processed: 2112
maglev packets processed: 5120
nat-tcp-v4 packets processed: 5952
lpm packets processed: 2176
maglev packets processed: 5184
lpm packets processed: 2240
nat-tcp-v4 packets processed: 6016
maglev packets processed: 5248
lpm packets processed: 2304
nat-tcp-v4 packets processed: 6080
maglev packets processed: 5312
lpm packets processed: 2368
nat-tcp-v4 packets processed: 6144
maglev packets processed: 5376
lpm packets processed: 2432
nat-tcp-v4 packets processed: 6208
maglev packets processed: 5440
lpm packets processed: 2496
nat-tcp-v4 packets processed: 6272
maglev packets processed: 5504
lpm packets processed: 2560
nat-tcp-v4 packets processed: 6336
maglev packets processed: 5568
lpm packets processed: 2624
nat-tcp-v4 packets processed: 6400
maglev packets processed: 5632
lpm packets processed: 2688
nat-tcp-v4 packets processed: 6464
lpm packets processed: 2752
maglev packets processed: 5696
nat-tcp-v4 packets processed: 6528
lpm packets processed: 2816
maglev packets processed: 5760
nat-tcp-v4 packets processed: 6592
lpm packets processed: 2880
maglev packets processed: 5824
nat-tcp-v4 packets processed: 6656
lpm packets processed: 2944
maglev packets processed: 5888
lpm packets processed: 3008
maglev packets processed: 5952
nat-tcp-v4 packets processed: 6720
lpm packets processed: 3072
maglev packets processed: 6016
nat-tcp-v4 packets processed: 6784
lpm packets processed: 3136
maglev packets processed: 6080
nat-tcp-v4 packets processed: 6848
lpm packets processed: 3200
maglev packets processed: 6144
nat-tcp-v4 packets processed: 6912
lpm packets processed: 3264
maglev packets processed: 6208
nat-tcp-v4 packets processed: 6976
lpm packets processed: 3328
maglev packets processed: 6272
nat-tcp-v4 packets processed: 7040
lpm packets processed: 3392
maglev packets processed: 6336
nat-tcp-v4 packets processed: 7104
lpm packets processed: 3456
maglev packets processed: 6400
nat-tcp-v4 packets processed: 7168
lpm packets processed: 3520
maglev packets processed: 6464
nat-tcp-v4 packets processed: 7232
lpm packets processed: 3584
maglev packets processed: 6528
nat-tcp-v4 packets processed: 7296
lpm packets processed: 3648
maglev packets processed: 6592
lpm packets processed: 3712
nat-tcp-v4 packets processed: 7360
maglev packets processed: 6656
lpm packets processed: 3776
maglev packets processed: 6720
nat-tcp-v4 packets processed: 7424
lpm packets processed: 3840
maglev packets processed: 6784
nat-tcp-v4 packets processed: 7488
lpm packets processed: 3904
maglev packets processed: 6848
nat-tcp-v4 packets processed: 7552
lpm packets processed: 3968
maglev packets processed: 6912
nat-tcp-v4 packets processed: 7616
lpm packets processed: 4032
maglev packets processed: 6976
nat-tcp-v4 packets processed: 7680
lpm packets processed: 4096
maglev packets processed: 7040
nat-tcp-v4 packets processed: 7744
lpm packets processed: 4160
maglev packets processed: 7104
nat-tcp-v4 packets processed: 7808
lpm packets processed: 4224
maglev packets processed: 7168
nat-tcp-v4 packets processed: 7872
lpm packets processed: 4288
maglev packets processed: 7232
nat-tcp-v4 packets processed: 7936
lpm packets processed: 4352
maglev packets processed: 7296
lpm packets processed: 4416
nat-tcp-v4 packets processed: 8000
maglev packets processed: 7360
lpm packets processed: 4480
nat-tcp-v4 packets processed: 8064
maglev packets processed: 7424
lpm packets processed: 4544
nat-tcp-v4 packets processed: 8128
maglev packets processed: 7488
lpm packets processed: 4608
maglev packets processed: 7552
nat-tcp-v4 packets processed: 8192
lpm packets processed: 4672
maglev packets processed: 7616
nat-tcp-v4 packets processed: 8256
lpm packets processed: 4736
maglev packets processed: 7680
nat-tcp-v4 packets processed: 8320
lpm packets processed: 4800
maglev packets processed: 7744
nat-tcp-v4 packets processed: 8384
lpm packets processed: 4864
maglev packets processed: 7808
nat-tcp-v4 packets processed: 8448
lpm packets processed: 4928
maglev packets processed: 7872
nat-tcp-v4 packets processed: 8512
lpm packets processed: 4992
maglev packets processed: 7936
nat-tcp-v4 packets processed: 8576
lpm packets processed: 5056
maglev packets processed: 8000
lpm packets processed: 5120
nat-tcp-v4 packets processed: 8640
maglev packets processed: 8064
lpm packets processed: 5184
nat-tcp-v4 packets processed: 8704
maglev packets processed: 8128
lpm packets processed: 5248
nat-tcp-v4 packets processed: 8768
maglev packets processed: 8192
lpm packets processed: 5312
nat-tcp-v4 packets processed: 8832
maglev packets processed: 8256
lpm packets processed: 5376
maglev packets processed: 8320
nat-tcp-v4 packets processed: 8896
lpm packets processed: 5440
maglev packets processed: 8384
nat-tcp-v4 packets processed: 8960
lpm packets processed: 5504
maglev packets processed: 8448
nat-tcp-v4 packets processed: 9024
lpm packets processed: 5568
maglev packets processed: 8512
nat-tcp-v4 packets processed: 9088
lpm packets processed: 5632
maglev packets processed: 8576
nat-tcp-v4 packets processed: 9152
lpm packets processed: 5696
maglev packets processed: 8640
nat-tcp-v4 packets processed: 9216
lpm packets processed: 5760
maglev packets processed: 8704
lpm packets processed: 5824
nat-tcp-v4 packets processed: 9280
maglev packets processed: 8768
lpm packets processed: 5888
nat-tcp-v4 packets processed: 9344
maglev packets processed: 8832
lpm packets processed: 5952
nat-tcp-v4 packets processed: 9408
maglev packets processed: 8896
lpm packets processed: 6016
nat-tcp-v4 packets processed: 9472
maglev packets processed: 8960
lpm packets processed: 6080
nat-tcp-v4 packets processed: 9536
maglev packets processed: 9024
lpm packets processed: 6144
maglev packets processed: 9088
nat-tcp-v4 packets processed: 9600
lpm packets processed: 6208
maglev packets processed: 9152
nat-tcp-v4 packets processed: 9664
lpm packets processed: 6272
maglev packets processed: 9216
nat-tcp-v4 packets processed: 9728
lpm packets processed: 6336
maglev packets processed: 9280
nat-tcp-v4 packets processed: 9792
lpm packets processed: 6400
maglev packets processed: 9344
nat-tcp-v4 packets processed: 9856
lpm packets processed: 6464
maglev packets processed: 9408
lpm packets processed: 6528
nat-tcp-v4 packets processed: 9920
maglev packets processed: 9472
lpm packets processed: 6592
nat-tcp-v4 packets processed: 9984
maglev packets processed: 9536
lpm packets processed: 6656
nat-tcp-v4 packets processed: 10048
maglev packets processed: 9600
lpm packets processed: 6720
nat-tcp-v4 packets processed: 10112
recover down
acl-fw packets processed: 0
maglev packets processed: 9664
lpm packets processed: 6784
nat-tcp-v4 packets processed: 10176
acl-fw packets processed: 64
maglev packets processed: 9728
lpm packets processed: 6848
nat-tcp-v4 packets processed: 10240
acl-fw packets processed: 128
maglev packets processed: 9792
lpm packets processed: 6912
acl-fw packets processed: 192
nat-tcp-v4 packets processed: 10304
maglev packets processed: 9856
lpm packets processed: 6976
maglev packets processed: 9920
acl-fw packets processed: 256
nat-tcp-v4 packets processed: 10368
lpm packets processed: 7040
maglev packets processed: 9984
acl-fw packets processed: 320
nat-tcp-v4 packets processed: 10432
lpm packets processed: 7104
maglev packets processed: 10048
acl-fw packets processed: 384
nat-tcp-v4 packets processed: 10496
lpm packets processed: 7168
maglev packets processed: 10112
acl-fw packets processed: 448
nat-tcp-v4 packets processed: 10560
lpm packets processed: 7232
maglev packets processed: 10176
acl-fw packets processed: 512
lpm packets processed: 7296
nat-tcp-v4 packets processed: 10624
maglev packets processed: 10240
acl-fw packets processed: 576
lpm packets processed: 7360
nat-tcp-v4 packets processed: 10688
maglev packets processed: 10304
acl-fw packets processed: 640
lpm packets processed: 7424
nat-tcp-v4 packets processed: 10752
maglev packets processed: 10368
acl-fw packets processed: 704
lpm packets processed: 7488
nat-tcp-v4 packets processed: 10816
maglev packets processed: 10432
lpm packets processed: 7552
acl-fw packets processed: 768
nat-tcp-v4 packets processed: 10880
maglev packets processed: 10496
lpm packets processed: 7616
acl-fw packets processed: 832
maglev packets processed: 10560
nat-tcp-v4 packets processed: 10944
lpm packets processed: 7680
acl-fw packets processed: 896
maglev packets processed: 10624
nat-tcp-v4 packets processed: 11008
lpm packets processed: 7744
acl-fw packets processed: 960
maglev packets processed: 10688
nat-tcp-v4 packets processed: 11072
lpm packets processed: 7808
acl-fw packets processed: 1024
maglev packets processed: 10752
lpm packets processed: 7872
nat-tcp-v4 packets processed: 11136
acl-fw packets processed: 1088
maglev packets processed: 10816
lpm packets processed: 7936
nat-tcp-v4 packets processed: 11200
acl-fw packets processed: 1152
maglev packets processed: 10880
lpm packets processed: 8000
nat-tcp-v4 packets processed: 11264
acl-fw packets processed: 1216
maglev packets processed: 10944
lpm packets processed: 8064
nat-tcp-v4 packets processed: 11328
acl-fw packets processed: 1280
maglev packets processed: 11008
lpm packets processed: 8128
nat-tcp-v4 packets processed: 11392
acl-fw packets processed: 1344
maglev packets processed: 11072
lpm packets processed: 8192
nat-tcp-v4 packets processed: 11456
acl-fw packets processed: 1408
maglev packets processed: 11136
lpm packets processed: 8256
nat-tcp-v4 packets processed: 11520
acl-fw packets processed: 1472
maglev packets processed: 11200
lpm packets processed: 8320
nat-tcp-v4 packets processed: 11584
acl-fw packets processed: 1536
maglev packets processed: 11264
lpm packets processed: 8384
nat-tcp-v4 packets processed: 11648
acl-fw packets processed: 1600
lpm packets processed: 8448
maglev packets processed: 11328
acl-fw packets processed: 1664
nat-tcp-v4 packets processed: 11712
lpm packets processed: 8512
maglev packets processed: 11392
lpm packets processed: 8576
acl-fw packets processed: 1728
maglev packets processed: 11456
nat-tcp-v4 packets processed: 11776
lpm packets processed: 8640
maglev packets processed: 11520
nat-tcp-v4 packets processed: 11840
acl-fw packets processed: 1792
lpm packets processed: 8704
maglev packets processed: 11584
nat-tcp-v4 packets processed: 11904
acl-fw packets processed: 1856
lpm packets processed: 8768
maglev packets processed: 11648
nat-tcp-v4 packets processed: 11968
acl-fw packets processed: 1920
lpm packets processed: 8832
maglev packets processed: 11712
acl-fw packets processed: 1984
nat-tcp-v4 packets processed: 12032
lpm packets processed: 8896
maglev packets processed: 11776
acl-fw packets processed: 2048
nat-tcp-v4 packets processed: 12096
lpm packets processed: 8960
maglev packets processed: 11840
acl-fw packets processed: 2112
nat-tcp-v4 packets processed: 12160
lpm packets processed: 9024
maglev packets processed: 11904
acl-fw packets processed: 2176
nat-tcp-v4 packets processed: 12224
lpm packets processed: 9088
maglev packets processed: 11968
acl-fw packets processed: 2240
nat-tcp-v4 packets processed: 12288
lpm packets processed: 9152
maglev packets processed: 12032
acl-fw packets processed: 2304
nat-tcp-v4 packets processed: 12352
lpm packets processed: 9216
maglev packets processed: 12096
acl-fw packets processed: 2368
lpm packets processed: 9280
nat-tcp-v4 packets processed: 12416
maglev packets processed: 12160
acl-fw packets processed: 2432
lpm packets processed: 9344
maglev packets processed: 12224
nat-tcp-v4 packets processed: 12480
acl-fw packets processed: 2496
lpm packets processed: 9408
maglev packets processed: 12288
nat-tcp-v4 packets processed: 12544
lpm packets processed: 9472
acl-fw packets processed: 2560
maglev packets processed: 12352
nat-tcp-v4 packets processed: 12608
lpm packets processed: 9536
acl-fw packets processed: 2624
maglev packets processed: 12416
nat-tcp-v4 packets processed: 12672
lpm packets processed: 9600
acl-fw packets processed: 2688
maglev packets processed: 12480
nat-tcp-v4 packets processed: 12736
lpm packets processed: 9664
acl-fw packets processed: 2752
maglev packets processed: 12544
nat-tcp-v4 packets processed: 12800
lpm packets processed: 9728
maglev packets processed: 12608
acl-fw packets processed: 2816
nat-tcp-v4 packets processed: 12864
lpm packets processed: 9792
maglev packets processed: 12672
acl-fw packets processed: 2880
nat-tcp-v4 packets processed: 12928
lpm packets processed: 9856
maglev packets processed: 12736
acl-fw packets processed: 2944
nat-tcp-v4 packets processed: 12992
lpm packets processed: 9920
maglev packets processed: 12800
acl-fw packets processed: 3008
lpm packets processed: 9984
nat-tcp-v4 packets processed: 13056
maglev packets processed: 12864
acl-fw packets processed: 3072
lpm packets processed: 10048
nat-tcp-v4 packets processed: 13120
maglev packets processed: 12928
acl-fw packets processed: 3136
lpm packets processed: 10112
maglev packets processed: 12992
nat-tcp-v4 packets processed: 13184
acl-fw packets processed: 3200
lpm packets processed: 10176
maglev packets processed: 13056
nat-tcp-v4 packets processed: 13248
acl-fw packets processed: 3264
lpm packets processed: 10240
maglev packets processed: 13120
nat-tcp-v4 packets processed: 13312
acl-fw packets processed: 3328
lpm packets processed: 10304
maglev packets processed: 13184
nat-tcp-v4 packets processed: 13376
acl-fw packets processed: 3392
lpm packets processed: 10368
maglev packets processed: 13248
nat-tcp-v4 packets processed: 13440
acl-fw packets processed: 3456
lpm packets processed: 10432
maglev packets processed: 13312
nat-tcp-v4 packets processed: 13504
acl-fw packets processed: 3520
lpm packets processed: 10496
maglev packets processed: 13376
nat-tcp-v4 packets processed: 13568
acl-fw packets processed: 3584
lpm packets processed: 10560
maglev packets processed: 13440
acl-fw packets processed: 3648
nat-tcp-v4 packets processed: 13632
lpm packets processed: 10624
maglev packets processed: 13504
lpm packets processed: 10688
acl-fw packets processed: 3712
nat-tcp-v4 packets processed: 13696
maglev packets processed: 13568
lpm packets processed: 10752
acl-fw packets processed: 3776
nat-tcp-v4 packets processed: 13760
maglev packets processed: 13632
lpm packets processed: 10816
acl-fw packets processed: 3840
nat-tcp-v4 packets processed: 13824
maglev packets processed: 13696
lpm packets processed: 10880
acl-fw packets processed: 3904
nat-tcp-v4 packets processed: 13888
maglev packets processed: 13760
lpm packets processed: 10944
acl-fw packets processed: 3968
maglev packets processed: 13824
nat-tcp-v4 packets processed: 13952
lpm packets processed: 11008
acl-fw packets processed: 4032
maglev packets processed: 13888
nat-tcp-v4 packets processed: 14016
lpm packets processed: 11072
acl-fw packets processed: 4096
maglev packets processed: 13952
nat-tcp-v4 packets processed: 14080
lpm packets processed: 11136
acl-fw packets processed: 4160
maglev packets processed: 14016
nat-tcp-v4 packets processed: 14144
lpm packets processed: 11200
maglev packets processed: 14080
acl-fw packets processed: 4224
nat-tcp-v4 packets processed: 14208
lpm packets processed: 11264
maglev packets processed: 14144
acl-fw packets processed: 4288
nat-tcp-v4 packets processed: 14272
lpm packets processed: 11328
maglev packets processed: 14208
acl-fw packets processed: 4352
lpm packets processed: 11392
nat-tcp-v4 packets processed: 14336
maglev packets processed: 14272
acl-fw packets processed: 4416
lpm packets processed: 11456
nat-tcp-v4 packets processed: 14400
maglev packets processed: 14336
acl-fw packets processed: 4480
lpm packets processed: 11520
nat-tcp-v4 packets processed: 14464
maglev packets processed: 14400
acl-fw packets processed: 4544
lpm packets processed: 11584
nat-tcp-v4 packets processed: 14528
maglev packets processed: 14464
acl-fw packets processed: 4608
lpm packets processed: 11648
nat-tcp-v4 packets processed: 14592
maglev packets processed: 14528
acl-fw packets processed: 4672
lpm packets processed: 11712
maglev packets processed: 14592
nat-tcp-v4 packets processed: 14656
acl-fw packets processed: 4736
lpm packets processed: 11776
maglev packets processed: 14656
nat-tcp-v4 packets processed: 14720
acl-fw packets processed: 4800
lpm packets processed: 11840
maglev packets processed: 14720
nat-tcp-v4 packets processed: 14784
acl-fw packets processed: 4864
lpm packets processed: 11904
maglev packets processed: 14784
nat-tcp-v4 packets processed: 14848
acl-fw packets processed: 4928
lpm packets processed: 11968
maglev packets processed: 14848
nat-tcp-v4 packets processed: 14912
acl-fw packets processed: 4992
lpm packets processed: 12032
maglev packets processed: 14912
lpm packets processed: 12096
acl-fw packets processed: 5056
nat-tcp-v4 packets processed: 14976
maglev packets processed: 14976
lpm packets processed: 12160
acl-fw packets processed: 5120
nat-tcp-v4 packets processed: 15040
maglev packets processed: 15040
lpm packets processed: 12224
acl-fw packets processed: 5184
nat-tcp-v4 packets processed: 15104
maglev packets processed: 15104
lpm packets processed: 12288
acl-fw packets processed: 5248
nat-tcp-v4 packets processed: 15168
maglev packets processed: 15168
lpm packets processed: 12352
acl-fw packets processed: 5312
nat-tcp-v4 packets processed: 15232
maglev packets processed: 15232
lpm packets processed: 12416
acl-fw packets processed: 5376
nat-tcp-v4 packets processed: 15296
maglev packets processed: 15296
lpm packets processed: 12480
acl-fw packets processed: 5440
maglev packets processed: 15360
nat-tcp-v4 packets processed: 15360
lpm packets processed: 12544
acl-fw packets processed: 5504
maglev packets processed: 15424
nat-tcp-v4 packets processed: 15424
lpm packets processed: 12608
acl-fw packets processed: 5568
maglev packets processed: 15488
lpm packets processed: 12672
nat-tcp-v4 packets processed: 15488
acl-fw packets processed: 5632
maglev packets processed: 15552
lpm packets processed: 12736
nat-tcp-v4 packets processed: 15552
acl-fw packets processed: 5696
maglev packets processed: 15616
lpm packets processed: 12800
nat-tcp-v4 packets processed: 15616
acl-fw packets processed: 5760
maglev packets processed: 15680
lpm packets processed: 12864
nat-tcp-v4 packets processed: 15680
acl-fw packets processed: 5824
maglev packets processed: 15744
lpm packets processed: 12928
nat-tcp-v4 packets processed: 15744
acl-fw packets processed: 5888
maglev packets processed: 15808
lpm packets processed: 12992
nat-tcp-v4 packets processed: 15808
maglev packets processed: 15872
acl-fw packets processed: 5952
lpm packets processed: 13056
nat-tcp-v4 packets processed: 15872
maglev packets processed: 15936
acl-fw packets processed: 6016
lpm packets processed: 13120
nat-tcp-v4 packets processed: 15936
maglev packets processed: 16000
lpm packets processed: 13184
acl-fw packets processed: 6080
nat-tcp-v4 packets processed: 16000
maglev packets processed: 16064
lpm packets processed: 13248
acl-fw packets processed: 6144
maglev packets processed: 16128
nat-tcp-v4 packets processed: 16064
lpm packets processed: 13312
acl-fw packets processed: 6208
maglev packets processed: 16192
lpm packets processed: 13376
nat-tcp-v4 packets processed: 16128
acl-fw packets processed: 6272
maglev packets processed: 16256
lpm packets processed: 13440
nat-tcp-v4 packets processed: 16192
acl-fw packets processed: 6336
maglev packets processed: 16320
lpm packets processed: 13504
nat-tcp-v4 packets processed: 16256
acl-fw packets processed: 6400
maglev packets processed: 16384
lpm packets processed: 13568
nat-tcp-v4 packets processed: 16320
acl-fw packets processed: 6464
maglev packets processed: 16448
lpm packets processed: 13632
acl-fw packets processed: 6528
nat-tcp-v4 packets processed: 16384
maglev packets processed: 16512
lpm packets processed: 13696
acl-fw packets processed: 6592
nat-tcp-v4 packets processed: 16448
maglev packets processed: 16576
lpm packets processed: 13760
acl-fw packets processed: 6656
nat-tcp-v4 packets processed: 16512
maglev packets processed: 16640
lpm packets processed: 13824
acl-fw packets processed: 6720
nat-tcp-v4 packets processed: 16576
maglev packets processed: 16704
lpm packets processed: 13888
acl-fw packets processed: 6784
nat-tcp-v4 packets processed: 16640
maglev packets processed: 16768
lpm packets processed: 13952
acl-fw packets processed: 6848
nat-tcp-v4 packets processed: 16704
lpm packets processed: 14016
maglev packets processed: 16832
acl-fw packets processed: 6912
lpm packets processed: 14080
maglev packets processed: 16896
nat-tcp-v4 packets processed: 16768
acl-fw packets processed: 6976
lpm packets processed: 14144
maglev packets processed: 16960
nat-tcp-v4 packets processed: 16832
acl-fw packets processed: 7040
lpm packets processed: 14208
maglev packets processed: 17024
nat-tcp-v4 packets processed: 16896
acl-fw packets processed: 7104
lpm packets processed: 14272
maglev packets processed: 17088
nat-tcp-v4 packets processed: 16960
lpm packets processed: 14336
acl-fw packets processed: 7168
maglev packets processed: 17152
nat-tcp-v4 packets processed: 17024
lpm packets processed: 14400
maglev packets processed: 17216
acl-fw packets processed: 7232
nat-tcp-v4 packets processed: 17088
lpm packets processed: 14464
maglev packets processed: 17280
acl-fw packets processed: 7296
nat-tcp-v4 packets processed: 17152
lpm packets processed: 14528
maglev packets processed: 17344
acl-fw packets processed: 7360
nat-tcp-v4 packets processed: 17216
lpm packets processed: 14592
maglev packets processed: 17408
acl-fw packets processed: 7424
nat-tcp-v4 packets processed: 17280
lpm packets processed: 14656
maglev packets processed: 17472
acl-fw packets processed: 7488
nat-tcp-v4 packets processed: 17344
lpm packets processed: 14720
maglev packets processed: 17536
acl-fw packets processed: 7552
lpm packets processed: 14784
nat-tcp-v4 packets processed: 17408
maglev packets processed: 17600
acl-fw packets processed: 7616
lpm packets processed: 14848
maglev packets processed: 17664
nat-tcp-v4 packets processed: 17472
acl-fw packets processed: 7680
lpm packets processed: 14912
maglev packets processed: 17728
nat-tcp-v4 packets processed: 17536
acl-fw packets processed: 7744
lpm packets processed: 14976
maglev packets processed: 17792
nat-tcp-v4 packets processed: 17600
acl-fw packets processed: 7808
lpm packets processed: 15040
maglev packets processed: 17856
nat-tcp-v4 packets processed: 17664
acl-fw packets processed: 7872
lpm packets processed: 15104
maglev packets processed: 17920
nat-tcp-v4 packets processed: 17728
acl-fw packets processed: 7936
lpm packets processed: 15168
maglev packets processed: 17984
nat-tcp-v4 packets processed: 17792
acl-fw packets processed: 8000
lpm packets processed: 15232
maglev packets processed: 18048
nat-tcp-v4 packets processed: 17856
acl-fw packets processed: 8064
lpm packets processed: 15296
maglev packets processed: 18112
nat-tcp-v4 packets processed: 17920
acl-fw packets processed: 8128
lpm packets processed: 15360
maglev packets processed: 18176
nat-tcp-v4 packets processed: 17984
acl-fw packets processed: 8192
lpm packets processed: 15424
maglev packets processed: 18240
lpm packets processed: 15488
acl-fw packets processed: 8256
nat-tcp-v4 packets processed: 18048
maglev packets processed: 18304
lpm packets processed: 15552
acl-fw packets processed: 8320
nat-tcp-v4 packets processed: 18112
maglev packets processed: 18368
lpm packets processed: 15616
acl-fw packets processed: 8384
maglev packets processed: 18432
nat-tcp-v4 packets processed: 18176
lpm packets processed: 15680
acl-fw packets processed: 8448
maglev packets processed: 18496
nat-tcp-v4 packets processed: 18240
lpm packets processed: 15744
maglev packets processed: 18560
acl-fw packets processed: 8512
nat-tcp-v4 packets processed: 18304
lpm packets processed: 15808
maglev packets processed: 18624
acl-fw packets processed: 8576
nat-tcp-v4 packets processed: 18368
lpm packets processed: 15872
maglev packets processed: 18688
acl-fw packets processed: 8640
nat-tcp-v4 packets processed: 18432
lpm packets processed: 15936
maglev packets processed: 18752
acl-fw packets processed: 8704
nat-tcp-v4 packets processed: 18496
lpm packets processed: 16000
maglev packets processed: 18816
acl-fw packets processed: 8768
nat-tcp-v4 packets processed: 18560
lpm packets processed: 16064
maglev packets processed: 18880
acl-fw packets processed: 8832
nat-tcp-v4 packets processed: 18624
lpm packets processed: 16128
maglev packets processed: 18944
acl-fw packets processed: 8896
lpm packets processed: 16192
nat-tcp-v4 packets processed: 18688
maglev packets processed: 19008
acl-fw packets processed: 8960
lpm packets processed: 16256
nat-tcp-v4 packets processed: 18752
maglev packets processed: 19072
acl-fw packets processed: 9024
lpm packets processed: 16320
nat-tcp-v4 packets processed: 18816
maglev packets processed: 19136
acl-fw packets processed: 9088
lpm packets processed: 16384
maglev packets processed: 19200
nat-tcp-v4 packets processed: 18880
acl-fw packets processed: 9152
lpm packets processed: 16448
maglev packets processed: 19264
nat-tcp-v4 packets processed: 18944
acl-fw packets processed: 9216
lpm packets processed: 16512
maglev packets processed: 19328
nat-tcp-v4 packets processed: 19008
acl-fw packets processed: 9280
lpm packets processed: 16576
maglev packets processed: 19392
nat-tcp-v4 packets processed: 19072
acl-fw packets processed: 9344
lpm packets processed: 16640
maglev packets processed: 19456
nat-tcp-v4 packets processed: 19136
acl-fw packets processed: 9408
lpm packets processed: 16704
maglev packets processed: 19520
nat-tcp-v4 packets processed: 19200
lpm packets processed: 16768
acl-fw packets processed: 9472
maglev packets processed: 19584
nat-tcp-v4 packets processed: 19264
lpm packets processed: 16832
acl-fw packets processed: 9536
maglev packets processed: 19648
lpm packets processed: 16896
nat-tcp-v4 packets processed: 19328
acl-fw packets processed: 9600
maglev packets processed: 19712
lpm packets processed: 16960
nat-tcp-v4 packets processed: 19392
acl-fw packets processed: 9664
maglev packets processed: 19776
lpm packets processed: 17024
acl-fw packets processed: 9728
nat-tcp-v4 packets processed: 19456
maglev packets processed: 19840
lpm packets processed: 17088
acl-fw packets processed: 9792
nat-tcp-v4 packets processed: 19520
maglev packets processed: 19904
lpm packets processed: 17152
acl-fw packets processed: 9856
maglev packets processed: 19968
nat-tcp-v4 packets processed: 19584
lpm packets processed: 17216
acl-fw packets processed: 9920
maglev packets processed: 20032
nat-tcp-v4 packets processed: 19648
lpm packets processed: 17280
acl-fw packets processed: 9984
maglev packets processed: 20096
nat-tcp-v4 packets processed: 19712
lpm packets processed: 17344
maglev packets processed: 20160
acl-fw packets processed: 10048
nat-tcp-v4 packets processed: 19776
lpm packets processed: 17408
maglev packets processed: 20224
acl-fw packets processed: 10112
nat-tcp-v4 packets processed: 19840
lpm packets processed: 17472
maglev packets processed: 20288
acl-fw packets processed: 10176
nat-tcp-v4 packets processed: 19904
lpm packets processed: 17536
maglev packets processed: 20352
acl-fw packets processed: 10240
lpm packets processed: 17600
nat-tcp-v4 packets processed: 19968
maglev packets processed: 20416
acl-fw packets processed: 10304
lpm packets processed: 17664
nat-tcp-v4 packets processed: 20032
maglev packets processed: 20480
acl-fw packets processed: 10368
lpm packets processed: 17728
nat-tcp-v4 packets processed: 20096
maglev packets processed: 20544
acl-fw packets processed: 10432
lpm packets processed: 17792
nat-tcp-v4 packets processed: 20160
maglev packets processed: 20608
acl-fw packets processed: 10496
lpm packets processed: 17856
nat-tcp-v4 packets processed: 20224
maglev packets processed: 20672
acl-fw packets processed: 10560
lpm packets processed: 17920
maglev packets processed: 20736
nat-tcp-v4 packets processed: 20288
lpm packets processed: 17984
acl-fw packets processed: 10624
maglev packets processed: 20800
nat-tcp-v4 packets processed: 20352
lpm packets processed: 18048
acl-fw packets processed: 10688
maglev packets processed: 20864
nat-tcp-v4 packets processed: 20416
lpm packets processed: 18112
acl-fw packets processed: 10752
maglev packets processed: 20928
nat-tcp-v4 packets processed: 20480
lpm packets processed: 18176
acl-fw packets processed: 10816
maglev packets processed: 20992
lpm packets processed: 18240
nat-tcp-v4 packets processed: 20544
acl-fw packets processed: 10880
maglev packets processed: 21056
lpm packets processed: 18304
nat-tcp-v4 packets processed: 20608
acl-fw packets processed: 10944
maglev packets processed: 21120
lpm packets processed: 18368
nat-tcp-v4 packets processed: 20672
acl-fw packets processed: 11008
maglev packets processed: 21184
lpm packets processed: 18432
nat-tcp-v4 packets processed: 20736
acl-fw packets processed: 11072
maglev packets processed: 21248
lpm packets processed: 18496
nat-tcp-v4 packets processed: 20800
maglev packets processed: 21312
acl-fw packets processed: 11136
lpm packets processed: 18560
nat-tcp-v4 packets processed: 20864
maglev packets processed: 21376
acl-fw packets processed: 11200
lpm packets processed: 18624
nat-tcp-v4 packets processed: 20928
maglev packets processed: 21440
acl-fw packets processed: 11264
lpm packets processed: 18688
maglev packets processed: 21504
nat-tcp-v4 packets processed: 20992
acl-fw packets processed: 11328
lpm packets processed: 18752
maglev packets processed: 21568
nat-tcp-v4 packets processed: 21056
acl-fw packets processed: 11392
lpm packets processed: 18816
maglev packets processed: 21632
nat-tcp-v4 packets processed: 21120
acl-fw packets processed: 11456
lpm packets processed: 18880
maglev packets processed: 21696
acl-fw packets processed: 11520
lpm packets processed: 18944
nat-tcp-v4 packets processed: 21184
maglev packets processed: 21760
lpm packets processed: 19008
acl-fw packets processed: 11584
nat-tcp-v4 packets processed: 21248
maglev packets processed: 21824
lpm packets processed: 19072
acl-fw packets processed: 11648
nat-tcp-v4 packets processed: 21312
maglev packets processed: 21888
lpm packets processed: 19136
acl-fw packets processed: 11712
nat-tcp-v4 packets processed: 21376
maglev packets processed: 21952
lpm packets processed: 19200
acl-fw packets processed: 11776
nat-tcp-v4 packets processed: 21440
maglev packets processed: 22016
lpm packets processed: 19264
acl-fw packets processed: 11840
nat-tcp-v4 packets processed: 21504
maglev packets processed: 22080
lpm packets processed: 19328
acl-fw packets processed: 11904
nat-tcp-v4 packets processed: 21568
maglev packets processed: 22144
lpm packets processed: 19392
acl-fw packets processed: 11968
nat-tcp-v4 packets processed: 21632
maglev packets processed: 22208
lpm packets processed: 19456
acl-fw packets processed: 12032
maglev packets processed: 22272
nat-tcp-v4 packets processed: 21696
lpm packets processed: 19520
acl-fw packets processed: 12096
maglev packets processed: 22336
nat-tcp-v4 packets processed: 21760
lpm packets processed: 19584
acl-fw packets processed: 12160
maglev packets processed: 22400
lpm packets processed: 19648
nat-tcp-v4 packets processed: 21824
acl-fw packets processed: 12224
maglev packets processed: 22464
lpm packets processed: 19712
nat-tcp-v4 packets processed: 21888
acl-fw packets processed: 12288
maglev packets processed: 22528
lpm packets processed: 19776
nat-tcp-v4 packets processed: 21952
acl-fw packets processed: 12352
maglev packets processed: 22592
lpm packets processed: 19840
nat-tcp-v4 packets processed: 22016
acl-fw packets processed: 12416
maglev packets processed: 22656
lpm packets processed: 19904
nat-tcp-v4 packets processed: 22080
acl-fw packets processed: 12480
maglev packets processed: 22720
lpm packets processed: 19968
nat-tcp-v4 packets processed: 22144
acl-fw packets processed: 12544
maglev packets processed: 22784
lpm packets processed: 20032
nat-tcp-v4 packets processed: 22208
acl-fw packets processed: 12608
maglev packets processed: 22848
lpm packets processed: 20096
nat-tcp-v4 packets processed: 22272
maglev packets processed: 22912
acl-fw packets processed: 12672
lpm packets processed: 20160
nat-tcp-v4 packets processed: 22336
maglev packets processed: 22976
acl-fw packets processed: 12736
lpm packets processed: 20224
maglev packets processed: 23040
nat-tcp-v4 packets processed: 22400
acl-fw packets processed: 12800
lpm packets processed: 20288
maglev packets processed: 23104
lpm packets processed: 20352
nat-tcp-v4 packets processed: 22464
acl-fw packets processed: 12864
maglev packets processed: 23168
lpm packets processed: 20416
acl-fw packets processed: 12928
nat-tcp-v4 packets processed: 22528
maglev packets processed: 23232
lpm packets processed: 20480
acl-fw packets processed: 12992
nat-tcp-v4 packets processed: 22592
maglev packets processed: 23296
lpm packets processed: 20544
acl-fw packets processed: 13056
nat-tcp-v4 packets processed: 22656
maglev packets processed: 23360
lpm packets processed: 20608
acl-fw packets processed: 13120
nat-tcp-v4 packets processed: 22720
maglev packets processed: 23424
lpm packets processed: 20672
acl-fw packets processed: 13184
nat-tcp-v4 packets processed: 22784
maglev packets processed: 23488
lpm packets processed: 20736
acl-fw packets processed: 13248
nat-tcp-v4 packets processed: 22848
maglev packets processed: 23552
lpm packets processed: 20800
acl-fw packets processed: 13312
nat-tcp-v4 packets processed: 22912
maglev packets processed: 23616
lpm packets processed: 20864
acl-fw packets processed: 13376
nat-tcp-v4 packets processed: 22976
maglev packets processed: 23680
lpm packets processed: 20928
acl-fw packets processed: 13440
nat-tcp-v4 packets processed: 23040
lpm packets processed: 20992
maglev packets processed: 23744
acl-fw packets processed: 13504
lpm packets processed: 21056
maglev packets processed: 23808
nat-tcp-v4 packets processed: 23104
acl-fw packets processed: 13568
lpm packets processed: 21120
maglev packets processed: 23872
nat-tcp-v4 packets processed: 23168
acl-fw packets processed: 13632
lpm packets processed: 21184
maglev packets processed: 23936
nat-tcp-v4 packets processed: 23232
acl-fw packets processed: 13696
lpm packets processed: 21248
maglev packets processed: 24000
nat-tcp-v4 packets processed: 23296
acl-fw packets processed: 13760
lpm packets processed: 21312
maglev packets processed: 24064
nat-tcp-v4 packets processed: 23360
acl-fw packets processed: 13824
lpm packets processed: 21376
maglev packets processed: 24128
nat-tcp-v4 packets processed: 23424
acl-fw packets processed: 13888
lpm packets processed: 21440
maglev packets processed: 24192
nat-tcp-v4 packets processed: 23488
acl-fw packets processed: 13952
lpm packets processed: 21504
maglev packets processed: 24256
nat-tcp-v4 packets processed: 23552
acl-fw packets processed: 14016
lpm packets processed: 21568
maglev packets processed: 24320
nat-tcp-v4 packets processed: 23616
acl-fw packets processed: 14080
lpm packets processed: 21632
maglev packets processed: 24384
nat-tcp-v4 packets processed: 23680
lpm packets processed: 21696
acl-fw packets processed: 14144
maglev packets processed: 24448
lpm packets processed: 21760
acl-fw packets processed: 14208
nat-tcp-v4 packets processed: 23744
maglev packets processed: 24512
lpm packets processed: 21824
maglev packets processed: 24576
acl-fw packets processed: 14272
nat-tcp-v4 packets processed: 23808
lpm packets processed: 21888
maglev packets processed: 24640
acl-fw packets processed: 14336
nat-tcp-v4 packets processed: 23872
lpm packets processed: 21952
maglev packets processed: 24704
acl-fw packets processed: 14400
nat-tcp-v4 packets processed: 23936
lpm packets processed: 22016
maglev packets processed: 24768
acl-fw packets processed: 14464
nat-tcp-v4 packets processed: 24000
lpm packets processed: 22080
maglev packets processed: 24832
acl-fw packets processed: 14528
nat-tcp-v4 packets processed: 24064
lpm packets processed: 22144
maglev packets processed: 24896
acl-fw packets processed: 14592
nat-tcp-v4 packets processed: 24128
lpm packets processed: 22208
maglev packets processed: 24960
acl-fw packets processed: 14656
nat-tcp-v4 packets processed: 24192
lpm packets processed: 22272
maglev packets processed: 25024
acl-fw packets processed: 14720
nat-tcp-v4 packets processed: 24256
lpm packets processed: 22336
maglev packets processed: 25088
acl-fw packets processed: 14784
lpm packets processed: 22400
nat-tcp-v4 packets processed: 24320
maglev packets processed: 25152
acl-fw packets processed: 14848
lpm packets processed: 22464
nat-tcp-v4 packets processed: 24384
maglev packets processed: 25216
acl-fw packets processed: 14912
lpm packets processed: 22528
nat-tcp-v4 packets processed: 24448
maglev packets processed: 25280
acl-fw packets processed: 14976
lpm packets processed: 22592
maglev packets processed: 25344
nat-tcp-v4 packets processed: 24512
acl-fw packets processed: 15040
lpm packets processed: 22656
maglev packets processed: 25408
nat-tcp-v4 packets processed: 24576
acl-fw packets processed: 15104
lpm packets processed: 22720
maglev packets processed: 25472
nat-tcp-v4 packets processed: 24640
acl-fw packets processed: 15168
lpm packets processed: 22784
maglev packets processed: 25536
nat-tcp-v4 packets processed: 24704
acl-fw packets processed: 15232
lpm packets processed: 22848
maglev packets processed: 25600
nat-tcp-v4 packets processed: 24768
acl-fw packets processed: 15296
lpm packets processed: 22912
maglev packets processed: 25664
nat-tcp-v4 packets processed: 24832
acl-fw packets processed: 15360
lpm packets processed: 22976
maglev packets processed: 25728
nat-tcp-v4 packets processed: 24896
lpm packets processed: 23040
acl-fw packets processed: 15424
maglev packets processed: 25792
lpm packets processed: 23104
nat-tcp-v4 packets processed: 24960
acl-fw packets processed: 15488
maglev packets processed: 25856
lpm packets processed: 23168
nat-tcp-v4 packets processed: 25024
acl-fw packets processed: 15552
maglev packets processed: 25920
lpm packets processed: 23232
nat-tcp-v4 packets processed: 25088
acl-fw packets processed: 15616
maglev packets processed: 25984
lpm packets processed: 23296
acl-fw packets processed: 15680
maglev packets processed: 26048
nat-tcp-v4 packets processed: 25152
lpm packets processed: 23360
maglev packets processed: 26112
acl-fw packets processed: 15744
nat-tcp-v4 packets processed: 25216
lpm packets processed: 23424
maglev packets processed: 26176
acl-fw packets processed: 15808
nat-tcp-v4 packets processed: 25280
lpm packets processed: 23488
maglev packets processed: 26240
acl-fw packets processed: 15872
nat-tcp-v4 packets processed: 25344
lpm packets processed: 23552
maglev packets processed: 26304
acl-fw packets processed: 15936
nat-tcp-v4 packets processed: 25408
lpm packets processed: 23616
maglev packets processed: 26368
acl-fw packets processed: 16000
nat-tcp-v4 packets processed: 25472
lpm packets processed: 23680
maglev packets processed: 26432
acl-fw packets processed: 16064
nat-tcp-v4 packets processed: 25536
lpm packets processed: 23744
maglev packets processed: 26496
acl-fw packets processed: 16128
lpm packets processed: 23808
nat-tcp-v4 packets processed: 25600
maglev packets processed: 26560
acl-fw packets processed: 16192
lpm packets processed: 23872
nat-tcp-v4 packets processed: 25664
maglev packets processed: 26624
acl-fw packets processed: 16256
lpm packets processed: 23936
nat-tcp-v4 packets processed: 25728
maglev packets processed: 26688
acl-fw packets processed: 16320
lpm packets processed: 24000
nat-tcp-v4 packets processed: 25792
maglev packets processed: 26752
acl-fw packets processed: 16384
lpm packets processed: 24064
maglev packets processed: 26816
nat-tcp-v4 packets processed: 25856
acl-fw packets processed: 16448
lpm packets processed: 24128
maglev packets processed: 26880
nat-tcp-v4 packets processed: 25920
acl-fw packets processed: 16512
lpm packets processed: 24192
maglev packets processed: 26944
nat-tcp-v4 packets processed: 25984
lpm packets processed: 24256
acl-fw packets processed: 16576
maglev packets processed: 27008
nat-tcp-v4 packets processed: 26048
lpm packets processed: 24320
acl-fw packets processed: 16640
maglev packets processed: 27072
nat-tcp-v4 packets processed: 26112
lpm packets processed: 24384
acl-fw packets processed: 16704
maglev packets processed: 27136
nat-tcp-v4 packets processed: 26176
lpm packets processed: 24448
acl-fw packets processed: 16768
maglev packets processed: 27200
lpm packets processed: 24512
nat-tcp-v4 packets processed: 26240
acl-fw packets processed: 16832
maglev packets processed: 27264
lpm packets processed: 24576
nat-tcp-v4 packets processed: 26304
acl-fw packets processed: 16896
maglev packets processed: 27328
lpm packets processed: 24640
nat-tcp-v4 packets processed: 26368
acl-fw packets processed: 16960
maglev packets processed: 27392
lpm packets processed: 24704
nat-tcp-v4 packets processed: 26432
acl-fw packets processed: 17024
maglev packets processed: 27456
lpm packets processed: 24768
acl-fw packets processed: 17088
nat-tcp-v4 packets processed: 26496
maglev packets processed: 27520
lpm packets processed: 24832
maglev packets processed: 27584
acl-fw packets processed: 17152
nat-tcp-v4 packets processed: 26560
lpm packets processed: 24896
maglev packets processed: 27648
acl-fw packets processed: 17216
nat-tcp-v4 packets processed: 26624
lpm packets processed: 24960
maglev packets processed: 27712
acl-fw packets processed: 17280
nat-tcp-v4 packets processed: 26688
lpm packets processed: 25024
maglev packets processed: 27776
acl-fw packets processed: 17344
nat-tcp-v4 packets processed: 26752
lpm packets processed: 25088
maglev packets processed: 27840
acl-fw packets processed: 17408
lpm packets processed: 25152
nat-tcp-v4 packets processed: 26816
maglev packets processed: 27904
acl-fw packets processed: 17472
lpm packets processed: 25216
nat-tcp-v4 packets processed: 26880
maglev packets processed: 27968
acl-fw packets processed: 17536
lpm packets processed: 25280
nat-tcp-v4 packets processed: 26944
maglev packets processed: 28032
lpm packets processed: 25344
acl-fw packets processed: 17600
nat-tcp-v4 packets processed: 27008
maglev packets processed: 28096
lpm packets processed: 25408
acl-fw packets processed: 17664
nat-tcp-v4 packets processed: 27072
maglev packets processed: 28160
lpm packets processed: 25472
acl-fw packets processed: 17728
nat-tcp-v4 packets processed: 27136
maglev packets processed: 28224
lpm packets processed: 25536
acl-fw packets processed: 17792
nat-tcp-v4 packets processed: 27200
maglev packets processed: 28288
lpm packets processed: 25600
acl-fw packets processed: 17856
maglev packets processed: 28352
nat-tcp-v4 packets processed: 27264
lpm packets processed: 25664
acl-fw packets processed: 17920
maglev packets processed: 28416
nat-tcp-v4 packets processed: 27328
lpm packets processed: 25728
acl-fw packets processed: 17984
maglev packets processed: 28480
nat-tcp-v4 packets processed: 27392
lpm packets processed: 25792
acl-fw packets processed: 18048
maglev packets processed: 28544
lpm packets processed: 25856
nat-tcp-v4 packets processed: 27456
acl-fw packets processed: 18112
maglev packets processed: 28608
lpm packets processed: 25920
nat-tcp-v4 packets processed: 27520
acl-fw packets processed: 18176
maglev packets processed: 28672
lpm packets processed: 25984
nat-tcp-v4 packets processed: 27584
acl-fw packets processed: 18240
maglev packets processed: 28736
lpm packets processed: 26048
nat-tcp-v4 packets processed: 27648
acl-fw packets processed: 18304
maglev packets processed: 28800
lpm packets processed: 26112
nat-tcp-v4 packets processed: 27712
acl-fw packets processed: 18368
maglev packets processed: 28864
lpm packets processed: 26176
nat-tcp-v4 packets processed: 27776
maglev packets processed: 28928
acl-fw packets processed: 18432
lpm packets processed: 26240
nat-tcp-v4 packets processed: 27840
maglev packets processed: 28992
acl-fw packets processed: 18496
lpm packets processed: 26304
nat-tcp-v4 packets processed: 27904
maglev packets processed: 29056
acl-fw packets processed: 18560
lpm packets processed: 26368
maglev packets processed: 29120
nat-tcp-v4 packets processed: 27968
acl-fw packets processed: 18624
lpm packets processed: 26432
maglev packets processed: 29184
acl-fw packets processed: 18688
nat-tcp-v4 packets processed: 28032
lpm packets processed: 26496
maglev packets processed: 29248
lpm packets processed: 26560
acl-fw packets processed: 18752
nat-tcp-v4 packets processed: 28096
maglev packets processed: 29312
lpm packets processed: 26624
acl-fw packets processed: 18816
nat-tcp-v4 packets processed: 28160
maglev packets processed: 29376
lpm packets processed: 26688
acl-fw packets processed: 18880
nat-tcp-v4 packets processed: 28224
maglev packets processed: 29440
lpm packets processed: 26752
acl-fw packets processed: 18944
nat-tcp-v4 packets processed: 28288
maglev packets processed: 29504
lpm packets processed: 26816
acl-fw packets processed: 19008
nat-tcp-v4 packets processed: 28352
maglev packets processed: 29568
lpm packets processed: 26880
acl-fw packets processed: 19072
nat-tcp-v4 packets processed: 28416
maglev packets processed: 29632
lpm packets processed: 26944
acl-fw packets processed: 19136
nat-tcp-v4 packets processed: 28480
maglev packets processed: 29696
lpm packets processed: 27008
acl-fw packets processed: 19200
nat-tcp-v4 packets processed: 28544
maglev packets processed: 29760
lpm packets processed: 27072
acl-fw packets processed: 19264
maglev packets processed: 29824
nat-tcp-v4 packets processed: 28608
lpm packets processed: 27136
acl-fw packets processed: 19328
maglev packets processed: 29888
lpm packets processed: 27200
nat-tcp-v4 packets processed: 28672
acl-fw packets processed: 19392
maglev packets processed: 29952
lpm packets processed: 27264
nat-tcp-v4 packets processed: 28736
acl-fw packets processed: 19456
maglev packets processed: 30016
lpm packets processed: 27328
nat-tcp-v4 packets processed: 28800
acl-fw packets processed: 19520
maglev packets processed: 30080
lpm packets processed: 27392
nat-tcp-v4 packets processed: 28864
acl-fw packets processed: 19584
maglev packets processed: 30144
lpm packets processed: 27456
nat-tcp-v4 packets processed: 28928
acl-fw packets processed: 19648
maglev packets processed: 30208
lpm packets processed: 27520
nat-tcp-v4 packets processed: 28992
acl-fw packets processed: 19712
maglev packets processed: 30272
lpm packets processed: 27584
nat-tcp-v4 packets processed: 29056
acl-fw packets processed: 19776
maglev packets processed: 30336
lpm packets processed: 27648
nat-tcp-v4 packets processed: 29120
acl-fw packets processed: 19840
maglev packets processed: 30400
lpm packets processed: 27712
nat-tcp-v4 packets processed: 29184
maglev packets processed: 30464
acl-fw packets processed: 19904
lpm packets processed: 27776
nat-tcp-v4 packets processed: 29248
maglev packets processed: 30528
lpm packets processed: 27840
acl-fw packets processed: 19968
maglev packets processed: 30592
lpm packets processed: 27904
nat-tcp-v4 packets processed: 29312
acl-fw packets processed: 20032
lpm packets processed: 27968
maglev packets processed: 30656
acl-fw packets processed: 20096
nat-tcp-v4 packets processed: 29376
lpm packets processed: 28032
maglev packets processed: 30720
nat-tcp-v4 packets processed: 29440
acl-fw packets processed: 20160
lpm packets processed: 28096
maglev packets processed: 30784
acl-fw packets processed: 20224
nat-tcp-v4 packets processed: 29504
lpm packets processed: 28160
maglev packets processed: 30848
acl-fw packets processed: 20288
nat-tcp-v4 packets processed: 29568
lpm packets processed: 28224
maglev packets processed: 30912
acl-fw packets processed: 20352
nat-tcp-v4 packets processed: 29632
lpm packets processed: 28288
maglev packets processed: 30976
acl-fw packets processed: 20416
nat-tcp-v4 packets processed: 29696
lpm packets processed: 28352
maglev packets processed: 31040
acl-fw packets processed: 20480
nat-tcp-v4 packets processed: 29760
lpm packets processed: 28416
maglev packets processed: 31104
acl-fw packets processed: 20544
nat-tcp-v4 packets processed: 29824
lpm packets processed: 28480
maglev packets processed: 31168
acl-fw packets processed: 20608
nat-tcp-v4 packets processed: 29888
lpm packets processed: 28544
maglev packets processed: 31232
acl-fw packets processed: 20672
lpm packets processed: 28608
nat-tcp-v4 packets processed: 29952
maglev packets processed: 31296
acl-fw packets processed: 20736
lpm packets processed: 28672
maglev packets processed: 31360
nat-tcp-v4 packets processed: 30016
acl-fw packets processed: 20800
lpm packets processed: 28736
maglev packets processed: 31424
nat-tcp-v4 packets processed: 30080
acl-fw packets processed: 20864
lpm packets processed: 28800
maglev packets processed: 31488
nat-tcp-v4 packets processed: 30144
acl-fw packets processed: 20928
lpm packets processed: 28864
maglev packets processed: 31552
nat-tcp-v4 packets processed: 30208
acl-fw packets processed: 20992
lpm packets processed: 28928
maglev packets processed: 31616
nat-tcp-v4 packets processed: 30272
acl-fw packets processed: 21056
lpm packets processed: 28992
maglev packets processed: 31680
nat-tcp-v4 packets processed: 30336
acl-fw packets processed: 21120
lpm packets processed: 29056
maglev packets processed: 31744
nat-tcp-v4 packets processed: 30400
lpm packets processed: 29120
acl-fw packets processed: 21184
maglev packets processed: 31808
nat-tcp-v4 packets processed: 30464
lpm packets processed: 29184
acl-fw packets processed: 21248
maglev packets processed: 31872
nat-tcp-v4 packets processed: 30528
lpm packets processed: 29248
maglev packets processed: 31936
acl-fw packets processed: 21312
lpm packets processed: 29312
nat-tcp-v4 packets processed: 30592
maglev packets processed: 32000
acl-fw packets processed: 21376
lpm packets processed: 29376
maglev packets processed: 32064
nat-tcp-v4 packets processed: 30656
acl-fw packets processed: 21440
lpm packets processed: 29440
maglev packets processed: 32128
nat-tcp-v4 packets processed: 30720
acl-fw packets processed: 21504
lpm packets processed: 29504
maglev packets processed: 32192
acl-fw packets processed: 21568
nat-tcp-v4 packets processed: 30784
lpm packets processed: 29568
maglev packets processed: 32256
acl-fw packets processed: 21632
nat-tcp-v4 packets processed: 30848
lpm packets processed: 29632
maglev packets processed: 32320
acl-fw packets processed: 21696
nat-tcp-v4 packets processed: 30912
lpm packets processed: 29696
maglev packets processed: 32384
acl-fw packets processed: 21760
nat-tcp-v4 packets processed: 30976
lpm packets processed: 29760
maglev packets processed: 32448
acl-fw packets processed: 21824
nat-tcp-v4 packets processed: 31040
lpm packets processed: 29824
maglev packets processed: 32512
acl-fw packets processed: 21888
nat-tcp-v4 packets processed: 31104
lpm packets processed: 29888
maglev packets processed: 32576
acl-fw packets processed: 21952
lpm packets processed: 29952
nat-tcp-v4 packets processed: 31168
maglev packets processed: 32640
acl-fw packets processed: 22016
lpm packets processed: 30016
nat-tcp-v4 packets processed: 31232
maglev packets processed: 32704
acl-fw packets processed: 22080
lpm packets processed: 30080
nat-tcp-v4 packets processed: 31296
maglev packets processed: 32768
lpm packets processed: 30144
acl-fw packets processed: 22144
maglev packets processed: 32832
nat-tcp-v4 packets processed: 31360
lpm packets processed: 30208
acl-fw packets processed: 22208
maglev packets processed: 32896
nat-tcp-v4 packets processed: 31424
lpm packets processed: 30272
acl-fw packets processed: 22272
maglev packets processed: 32960
nat-tcp-v4 packets processed: 31488
lpm packets processed: 30336
acl-fw packets processed: 22336
maglev packets processed: 33024
nat-tcp-v4 packets processed: 31552
lpm packets processed: 30400
acl-fw packets processed: 22400
maglev packets processed: 33088
nat-tcp-v4 packets processed: 31616
lpm packets processed: 30464
acl-fw packets processed: 22464
maglev packets processed: 33152
nat-tcp-v4 packets processed: 31680
lpm packets processed: 30528
maglev packets processed: 33216
acl-fw packets processed: 22528
nat-tcp-v4 packets processed: 31744
lpm packets processed: 30592
maglev packets processed: 33280
acl-fw packets processed: 22592
lpm packets processed: 30656
nat-tcp-v4 packets processed: 31808
maglev packets processed: 33344
acl-fw packets processed: 22656
lpm packets processed: 30720
nat-tcp-v4 packets processed: 31872
maglev packets processed: 33408
acl-fw packets processed: 22720
lpm packets processed: 30784
nat-tcp-v4 packets processed: 31936
maglev packets processed: 33472
acl-fw packets processed: 22784
lpm packets processed: 30848
nat-tcp-v4 packets processed: 32000
maglev packets processed: 33536
acl-fw packets processed: 22848
lpm packets processed: 30912
maglev packets processed: 33600
nat-tcp-v4 packets processed: 32064
acl-fw packets processed: 22912
lpm packets processed: 30976
maglev packets processed: 33664
nat-tcp-v4 packets processed: 32128
acl-fw packets processed: 22976
lpm packets processed: 31040
maglev packets processed: 33728
nat-tcp-v4 packets processed: 32192
acl-fw packets processed: 23040
lpm packets processed: 31104
maglev packets processed: 33792
acl-fw packets processed: 23104
nat-tcp-v4 packets processed: 32256
lpm packets processed: 31168
maglev packets processed: 33856
acl-fw packets processed: 23168
nat-tcp-v4 packets processed: 32320
lpm packets processed: 31232
maglev packets processed: 33920
acl-fw packets processed: 23232
lpm packets processed: 31296
nat-tcp-v4 packets processed: 32384
maglev packets processed: 33984
acl-fw packets processed: 23296
lpm packets processed: 31360
nat-tcp-v4 packets processed: 32448
maglev packets processed: 34048
acl-fw packets processed: 23360
lpm packets processed: 31424
nat-tcp-v4 packets processed: 32512
maglev packets processed: 34112
lpm packets processed: 31488
acl-fw packets processed: 23424
nat-tcp-v4 packets processed: 32576
maglev packets processed: 34176
lpm packets processed: 31552
acl-fw packets processed: 23488
nat-tcp-v4 packets processed: 32640
maglev packets processed: 34240
lpm packets processed: 31616
acl-fw packets processed: 23552
maglev packets processed: 34304
nat-tcp-v4 packets processed: 32704
lpm packets processed: 31680
acl-fw packets processed: 23616
maglev packets processed: 34368
nat-tcp-v4 packets processed: 32768
lpm packets processed: 31744
acl-fw packets processed: 23680
maglev packets processed: 34432
nat-tcp-v4 packets processed: 32832
lpm packets processed: 31808
acl-fw packets processed: 23744
maglev packets processed: 34496
nat-tcp-v4 packets processed: 32896
lpm packets processed: 31872
acl-fw packets processed: 23808
maglev packets processed: 34560
nat-tcp-v4 packets processed: 32960
lpm packets processed: 31936
acl-fw packets processed: 23872
maglev packets processed: 34624
lpm packets processed: 32000
nat-tcp-v4 packets processed: 33024
acl-fw packets processed: 23936
maglev packets processed: 34688
lpm packets processed: 32064
nat-tcp-v4 packets processed: 33088
acl-fw packets processed: 24000
maglev packets processed: 34752
lpm packets processed: 32128
nat-tcp-v4 packets processed: 33152
maglev packets processed: 34816
acl-fw packets processed: 24064
lpm packets processed: 32192
nat-tcp-v4 packets processed: 33216
maglev packets processed: 34880
acl-fw packets processed: 24128
lpm packets processed: 32256
nat-tcp-v4 packets processed: 33280
maglev packets processed: 34944
acl-fw packets processed: 24192
lpm packets processed: 32320
nat-tcp-v4 packets processed: 33344
maglev packets processed: 35008
acl-fw packets processed: 24256
lpm packets processed: 32384
maglev packets processed: 35072
nat-tcp-v4 packets processed: 33408
lpm packets processed: 32448
acl-fw packets processed: 24320
maglev packets processed: 35136
nat-tcp-v4 packets processed: 33472
lpm packets processed: 32512
acl-fw packets processed: 24384
maglev packets processed: 35200
nat-tcp-v4 packets processed: 33536
lpm packets processed: 32576
acl-fw packets processed: 24448
maglev packets processed: 35264
lpm packets processed: 32640
nat-tcp-v4 packets processed: 33600
acl-fw packets processed: 24512
maglev packets processed: 35328
lpm packets processed: 32704
nat-tcp-v4 packets processed: 33664
acl-fw packets processed: 24576
maglev packets processed: 35392
lpm packets processed: 32768
nat-tcp-v4 packets processed: 33728
acl-fw packets processed: 24640
maglev packets processed: 35456
lpm packets processed: 32832
nat-tcp-v4 packets processed: 33792
acl-fw packets processed: 24704
maglev packets processed: 35520
lpm packets processed: 32896
nat-tcp-v4 packets processed: 33856
acl-fw packets processed: 24768
maglev packets processed: 35584
lpm packets processed: 32960
acl-fw packets processed: 24832
nat-tcp-v4 packets processed: 33920
maglev packets processed: 35648
lpm packets processed: 33024
acl-fw packets processed: 24896
nat-tcp-v4 packets processed: 33984
maglev packets processed: 35712
lpm packets processed: 33088
acl-fw packets processed: 24960
nat-tcp-v4 packets processed: 34048
maglev packets processed: 35776
lpm packets processed: 33152
acl-fw packets processed: 25024
maglev packets processed: 35840
nat-tcp-v4 packets processed: 34112
lpm packets processed: 33216
acl-fw packets processed: 25088
maglev packets processed: 35904
nat-tcp-v4 packets processed: 34176
lpm packets processed: 33280
maglev packets processed: 35968
acl-fw packets processed: 25152
lpm packets processed: 33344
nat-tcp-v4 packets processed: 34240
maglev packets processed: 36032
acl-fw packets processed: 25216
lpm packets processed: 33408
nat-tcp-v4 packets processed: 34304
maglev packets processed: 36096
acl-fw packets processed: 25280
lpm packets processed: 33472
nat-tcp-v4 packets processed: 34368
maglev packets processed: 36160
acl-fw packets processed: 25344
lpm packets processed: 33536
nat-tcp-v4 packets processed: 34432
maglev packets processed: 36224
acl-fw packets processed: 25408
lpm packets processed: 33600
nat-tcp-v4 packets processed: 34496
maglev packets processed: 36288
acl-fw packets processed: 25472
lpm packets processed: 33664
nat-tcp-v4 packets processed: 34560
maglev packets processed: 36352
lpm packets processed: 33728
acl-fw packets processed: 25536
nat-tcp-v4 packets processed: 34624
maglev packets processed: 36416
lpm packets processed: 33792
acl-fw packets processed: 25600
nat-tcp-v4 packets processed: 34688
maglev packets processed: 36480
lpm packets processed: 33856
acl-fw packets processed: 25664
maglev packets processed: 36544
nat-tcp-v4 packets processed: 34752
lpm packets processed: 33920
acl-fw packets processed: 25728
maglev packets processed: 36608
nat-tcp-v4 packets processed: 34816
lpm packets processed: 33984
acl-fw packets processed: 25792
maglev packets processed: 36672
lpm packets processed: 34048
nat-tcp-v4 packets processed: 34880
acl-fw packets processed: 25856
maglev packets processed: 36736
lpm packets processed: 34112
nat-tcp-v4 packets processed: 34944
acl-fw packets processed: 25920
maglev packets processed: 36800
lpm packets processed: 34176
nat-tcp-v4 packets processed: 35008
acl-fw packets processed: 25984
maglev packets processed: 36864
lpm packets processed: 34240
nat-tcp-v4 packets processed: 35072
acl-fw packets processed: 26048
maglev packets processed: 36928
lpm packets processed: 34304
nat-tcp-v4 packets processed: 35136
acl-fw packets processed: 26112
maglev packets processed: 36992
lpm packets processed: 34368
nat-tcp-v4 packets processed: 35200
acl-fw packets processed: 26176
maglev packets processed: 37056
lpm packets processed: 34432
nat-tcp-v4 packets processed: 35264
acl-fw packets processed: 26240
maglev packets processed: 37120
lpm packets processed: 34496
nat-tcp-v4 packets processed: 35328
acl-fw packets processed: 26304
maglev packets processed: 37184
lpm packets processed: 34560
acl-fw packets processed: 26368
nat-tcp-v4 packets processed: 35392
maglev packets processed: 37248
lpm packets processed: 34624
acl-fw packets processed: 26432
maglev packets processed: 37312
lpm packets processed: 34688
nat-tcp-v4 packets processed: 35456
maglev packets processed: 37376
acl-fw packets processed: 26496
nat-tcp-v4 packets processed: 35520
lpm packets processed: 34752
maglev packets processed: 37440
acl-fw packets processed: 26560
lpm packets processed: 34816
nat-tcp-v4 packets processed: 35584
maglev packets processed: 37504
acl-fw packets processed: 26624
lpm packets processed: 34880
nat-tcp-v4 packets processed: 35648
maglev packets processed: 37568
acl-fw packets processed: 26688
lpm packets processed: 34944
nat-tcp-v4 packets processed: 35712
maglev packets processed: 37632
lpm packets processed: 35008
acl-fw packets processed: 26752
nat-tcp-v4 packets processed: 35776
maglev packets processed: 37696
lpm packets processed: 35072
acl-fw packets processed: 26816
nat-tcp-v4 packets processed: 35840
maglev packets processed: 37760
lpm packets processed: 35136
acl-fw packets processed: 26880
nat-tcp-v4 packets processed: 35904
maglev packets processed: 37824
lpm packets processed: 35200
acl-fw packets processed: 26944
nat-tcp-v4 packets processed: 35968
maglev packets processed: 37888
lpm packets processed: 35264
acl-fw packets processed: 27008
nat-tcp-v4 packets processed: 36032
maglev packets processed: 37952
lpm packets processed: 35328
acl-fw packets processed: 27072
maglev packets processed: 38016
nat-tcp-v4 packets processed: 36096
lpm packets processed: 35392
acl-fw packets processed: 27136
maglev packets processed: 38080
lpm packets processed: 35456
nat-tcp-v4 packets processed: 36160
acl-fw packets processed: 27200
maglev packets processed: 38144
lpm packets processed: 35520
nat-tcp-v4 packets processed: 36224
acl-fw packets processed: 27264
maglev packets processed: 38208
lpm packets processed: 35584
nat-tcp-v4 packets processed: 36288
acl-fw packets processed: 27328
maglev packets processed: 38272
lpm packets processed: 35648
nat-tcp-v4 packets processed: 36352
acl-fw packets processed: 27392
maglev packets processed: 38336
lpm packets processed: 35712
nat-tcp-v4 packets processed: 36416
acl-fw packets processed: 27456
maglev packets processed: 38400
lpm packets processed: 35776
nat-tcp-v4 packets processed: 36480
acl-fw packets processed: 27520
maglev packets processed: 38464
lpm packets processed: 35840
nat-tcp-v4 packets processed: 36544
acl-fw packets processed: 27584
maglev packets processed: 38528
lpm packets processed: 35904
nat-tcp-v4 packets processed: 36608
maglev packets processed: 38592
lpm packets processed: 35968
acl-fw packets processed: 27648
nat-tcp-v4 packets processed: 36672
maglev packets processed: 38656
lpm packets processed: 36032
acl-fw packets processed: 27712
nat-tcp-v4 packets processed: 36736
maglev packets processed: 38720
lpm packets processed: 36096
acl-fw packets processed: 27776
lpm packets processed: 36160
maglev packets processed: 38784
nat-tcp-v4 packets processed: 36800
acl-fw packets processed: 27840
lpm packets processed: 36224
maglev packets processed: 38848
nat-tcp-v4 packets processed: 36864
acl-fw packets processed: 27904
lpm packets processed: 36288
maglev packets processed: 38912
nat-tcp-v4 packets processed: 36928
acl-fw packets processed: 27968
lpm packets processed: 36352
maglev packets processed: 38976
nat-tcp-v4 packets processed: 36992
acl-fw packets processed: 28032
lpm packets processed: 36416
maglev packets processed: 39040
acl-fw packets processed: 28096
nat-tcp-v4 packets processed: 37056
lpm packets processed: 36480
maglev packets processed: 39104
acl-fw packets processed: 28160
nat-tcp-v4 packets processed: 37120
lpm packets processed: 36544
maglev packets processed: 39168
acl-fw packets processed: 28224
nat-tcp-v4 packets processed: 37184
lpm packets processed: 36608
maglev packets processed: 39232
acl-fw packets processed: 28288
nat-tcp-v4 packets processed: 37248
lpm packets processed: 36672
maglev packets processed: 39296
acl-fw packets processed: 28352
nat-tcp-v4 packets processed: 37312
lpm packets processed: 36736
maglev packets processed: 39360
acl-fw packets processed: 28416
lpm packets processed: 36800
nat-tcp-v4 packets processed: 37376
maglev packets processed: 39424
acl-fw packets processed: 28480
lpm packets processed: 36864
maglev packets processed: 39488
nat-tcp-v4 packets processed: 37440
acl-fw packets processed: 28544
lpm packets processed: 36928
maglev packets processed: 39552
nat-tcp-v4 packets processed: 37504
acl-fw packets processed: 28608
lpm packets processed: 36992
maglev packets processed: 39616
nat-tcp-v4 packets processed: 37568
lpm packets processed: 37056
acl-fw packets processed: 28672
maglev packets processed: 39680
nat-tcp-v4 packets processed: 37632
lpm packets processed: 37120
acl-fw packets processed: 28736
maglev packets processed: 39744
nat-tcp-v4 packets processed: 37696
lpm packets processed: 37184
acl-fw packets processed: 28800
maglev packets processed: 39808
nat-tcp-v4 packets processed: 37760
lpm packets processed: 37248
maglev packets processed: 39872
acl-fw packets processed: 28864
nat-tcp-v4 packets processed: 37824
lpm packets processed: 37312
maglev packets processed: 39936
acl-fw packets processed: 28928
nat-tcp-v4 packets processed: 37888
lpm packets processed: 37376
maglev packets processed: 40000
acl-fw packets processed: 28992
nat-tcp-v4 packets processed: 37952
lpm packets processed: 37440
maglev packets processed: 40064
acl-fw packets processed: 29056
lpm packets processed: 37504
nat-tcp-v4 packets processed: 38016
maglev packets processed: 40128
acl-fw packets processed: 29120
lpm packets processed: 37568
nat-tcp-v4 packets processed: 38080
maglev packets processed: 40192
acl-fw packets processed: 29184
lpm packets processed: 37632
maglev packets processed: 40256
nat-tcp-v4 packets processed: 38144
acl-fw packets processed: 29248
lpm packets processed: 37696
maglev packets processed: 40320
nat-tcp-v4 packets processed: 38208
acl-fw packets processed: 29312
lpm packets processed: 37760
maglev packets processed: 40384
nat-tcp-v4 packets processed: 38272
acl-fw packets processed: 29376
lpm packets processed: 37824
maglev packets processed: 40448
nat-tcp-v4 packets processed: 38336
acl-fw packets processed: 29440
lpm packets processed: 37888
maglev packets processed: 40512
nat-tcp-v4 packets processed: 38400
acl-fw packets processed: 29504
lpm packets processed: 37952
maglev packets processed: 40576
nat-tcp-v4 packets processed: 38464
acl-fw packets processed: 29568
lpm packets processed: 38016
maglev packets processed: 40640
nat-tcp-v4 packets processed: 38528
lpm packets processed: 38080
acl-fw packets processed: 29632
maglev packets processed: 40704
lpm packets processed: 38144
nat-tcp-v4 packets processed: 38592
acl-fw packets processed: 29696
maglev packets processed: 40768
lpm packets processed: 38208
acl-fw packets processed: 29760
nat-tcp-v4 packets processed: 38656
maglev packets processed: 40832
lpm packets processed: 38272
acl-fw packets processed: 29824
nat-tcp-v4 packets processed: 38720
maglev packets processed: 40896
lpm packets processed: 38336
acl-fw packets processed: 29888
maglev packets processed: 40960
nat-tcp-v4 packets processed: 38784
lpm packets processed: 38400
acl-fw packets processed: 29952
maglev packets processed: 41024
nat-tcp-v4 packets processed: 38848
lpm packets processed: 38464
acl-fw packets processed: 30016
maglev packets processed: 41088
nat-tcp-v4 packets processed: 38912
lpm packets processed: 38528
maglev packets processed: 41152
acl-fw packets processed: 30080
nat-tcp-v4 packets processed: 38976
lpm packets processed: 38592
maglev packets processed: 41216
acl-fw packets processed: 30144
nat-tcp-v4 packets processed: 39040
lpm packets processed: 38656
maglev packets processed: 41280
acl-fw packets processed: 30208
nat-tcp-v4 packets processed: 39104
lpm packets processed: 38720
maglev packets processed: 41344
acl-fw packets processed: 30272
nat-tcp-v4 packets processed: 39168
lpm packets processed: 38784
maglev packets processed: 41408
acl-fw packets processed: 30336
lpm packets processed: 38848
nat-tcp-v4 packets processed: 39232
maglev packets processed: 41472
acl-fw packets processed: 30400
lpm packets processed: 38912
nat-tcp-v4 packets processed: 39296
maglev packets processed: 41536
acl-fw packets processed: 30464
lpm packets processed: 38976
nat-tcp-v4 packets processed: 39360
maglev packets processed: 41600
acl-fw packets processed: 30528
lpm packets processed: 39040
nat-tcp-v4 packets processed: 39424
maglev packets processed: 41664
acl-fw packets processed: 30592
lpm packets processed: 39104
nat-tcp-v4 packets processed: 39488
maglev packets processed: 41728
acl-fw packets processed: 30656
lpm packets processed: 39168
nat-tcp-v4 packets processed: 39552
maglev packets processed: 41792
acl-fw packets processed: 30720
lpm packets processed: 39232
maglev packets processed: 41856
nat-tcp-v4 packets processed: 39616
acl-fw packets processed: 30784
lpm packets processed: 39296
maglev packets processed: 41920
nat-tcp-v4 packets processed: 39680
lpm packets processed: 39360
acl-fw packets processed: 30848
maglev packets processed: 41984
nat-tcp-v4 packets processed: 39744
lpm packets processed: 39424
acl-fw packets processed: 30912
maglev packets processed: 42048
lpm packets processed: 39488
nat-tcp-v4 packets processed: 39808
acl-fw packets processed: 30976
maglev packets processed: 42112
lpm packets processed: 39552
nat-tcp-v4 packets processed: 39872
acl-fw packets processed: 31040
maglev packets processed: 42176
lpm packets processed: 39616
acl-fw packets processed: 31104
nat-tcp-v4 packets processed: 39936
maglev packets processed: 42240
lpm packets processed: 39680
acl-fw packets processed: 31168
nat-tcp-v4 packets processed: 40000
maglev packets processed: 42304
lpm packets processed: 39744
acl-fw packets processed: 31232
nat-tcp-v4 packets processed: 40064
maglev packets processed: 42368
lpm packets processed: 39808
acl-fw packets processed: 31296
nat-tcp-v4 packets processed: 40128
maglev packets processed: 42432
lpm packets processed: 39872
acl-fw packets processed: 31360
nat-tcp-v4 packets processed: 40192
maglev packets processed: 42496
lpm packets processed: 39936
acl-fw packets processed: 31424
maglev packets processed: 42560
nat-tcp-v4 packets processed: 40256
lpm packets processed: 40000
acl-fw packets processed: 31488
maglev packets processed: 42624
nat-tcp-v4 packets processed: 40320
lpm packets processed: 40064
acl-fw packets processed: 31552
maglev packets processed: 42688
nat-tcp-v4 packets processed: 40384
lpm packets processed: 40128
acl-fw packets processed: 31616
maglev packets processed: 42752
lpm packets processed: 40192
nat-tcp-v4 packets processed: 40448
acl-fw packets processed: 31680
maglev packets processed: 42816
lpm packets processed: 40256
nat-tcp-v4 packets processed: 40512
[...]
acl-fw packets processed: 54656
maglev packets processed: 66880
nat-tcp-v4 packets processed: 62400
lpm packets processed: 64576
acl-fw packets processed: 54720
maglev packets processed: 66944
nat-tcp-v4 packets processed: 62464
lpm packets processed: 64640
acl-fw packets processed: 54784
maglev packets processed: 67008
nat-tcp-v4 packets processed: 62528
lpm packets processed: 64704
acl-fw packets processed: 54848
maglev packets processed: 67072
nat-tcp-v4 packets processed: 62592
lpm packets processed: 64768
acl-fw packets processed: 54912
maglev packets processed: 67136
lpm packets processed: 64832
nat-tcp-v4 packets processed: 62656
acl-fw packets processed: 54976
maglev packets processed: 67200
lpm packets processed: 64896
nat-tcp-v4 packets processed: 62720
acl-fw packets processed: 55040
maglev packets processed: 67264
lpm packets processed: 64960
nat-tcp-v4 packets processed: 62784
acl-fw packets processed: 55104
maglev packets processed: 67328
lpm packets processed: 65024
nat-tcp-v4 packets processed: 62848
acl-fw packets processed: 55168
maglev packets processed: 67392
lpm packets processed: 65088
nat-tcp-v4 packets processed: 62912
acl-fw packets processed: 55232
maglev packets processed: 67456
lpm packets processed: 65152
acl-fw packets processed: 55296
nat-tcp-v4 packets processed: 62976
maglev packets processed: 67520
lpm packets processed: 65216
acl-fw packets processed: 55360
maglev packets processed: 67584
nat-tcp-v4 packets processed: 63040
lpm packets processed: 65280
maglev packets processed: 67648
acl-fw packets processed: 55424
nat-tcp-v4 packets processed: 63104
lpm packets processed: 65344
maglev packets processed: 67712
acl-fw packets processed: 55488
nat-tcp-v4 packets processed: 63168
lpm packets processed: 65408
maglev packets processed: 67776
acl-fw packets processed: 55552
lpm packets processed: 65472
nat-tcp-v4 packets processed: 63232
maglev packets processed: 67840
acl-fw packets processed: 55616
lpm packets processed: 65536
nat-tcp-v4 packets processed: 63296
maglev packets processed: 67904
acl-fw packets processed: 55680
lpm packets processed: 65600
nat-tcp-v4 packets processed: 63360
maglev packets processed: 67968
acl-fw packets processed: 55744
lpm packets processed: 65664
nat-tcp-v4 packets processed: 63424
maglev packets processed: 68032
lpm packets processed: 65728
acl-fw packets processed: 55808
nat-tcp-v4 packets processed: 63488
maglev packets processed: 68096
lpm packets processed: 65792
acl-fw packets processed: 55872
nat-tcp-v4 packets processed: 63552
maglev packets processed: 68160
lpm packets processed: 65856
acl-fw packets processed: 55936
nat-tcp-v4 packets processed: 63616
maglev packets processed: 68224
lpm packets processed: 65920
acl-fw packets processed: 56000
maglev packets processed: 68288
nat-tcp-v4 packets processed: 63680
lpm packets processed: 65984
acl-fw packets processed: 56064
maglev packets processed: 68352
nat-tcp-v4 packets processed: 63744
lpm packets processed: 66048
acl-fw packets processed: 56128
maglev packets processed: 68416
lpm packets processed: 66112
nat-tcp-v4 packets processed: 63808
acl-fw packets processed: 56192
maglev packets processed: 68480
lpm packets processed: 66176
nat-tcp-v4 packets processed: 63872
acl-fw packets processed: 56256
maglev packets processed: 68544
lpm packets processed: 66240
nat-tcp-v4 packets processed: 63936
acl-fw packets processed: 56320
maglev packets processed: 68608
lpm packets processed: 66304
nat-tcp-v4 packets processed: 64000
acl-fw packets processed: 56384
maglev packets processed: 68672
lpm packets processed: 66368
nat-tcp-v4 packets processed: 64064
acl-fw packets processed: 56448
maglev packets processed: 68736
lpm packets processed: 66432
nat-tcp-v4 packets processed: 64128
maglev packets processed: 68800
acl-fw packets processed: 56512
lpm packets processed: 66496
nat-tcp-v4 packets processed: 64192
maglev packets processed: 68864
acl-fw packets processed: 56576
lpm packets processed: 66560
nat-tcp-v4 packets processed: 64256
maglev packets processed: 68928
acl-fw packets processed: 56640
lpm packets processed: 66624
maglev packets processed: 68992
nat-tcp-v4 packets processed: 64320
acl-fw packets processed: 56704
lpm packets processed: 66688
maglev packets processed: 69056
acl-fw packets processed: 56768
lpm packets processed: 66752
nat-tcp-v4 packets processed: 64384
maglev packets processed: 69120
lpm packets processed: 66816
acl-fw packets processed: 56832
nat-tcp-v4 packets processed: 64448
maglev packets processed: 69184
lpm packets processed: 66880
acl-fw packets processed: 56896
nat-tcp-v4 packets processed: 64512
maglev packets processed: 69248
lpm packets processed: 66944
acl-fw packets processed: 56960
nat-tcp-v4 packets processed: 64576
maglev packets processed: 69312
lpm packets processed: 67008
acl-fw packets processed: 57024
nat-tcp-v4 packets processed: 64640
maglev packets processed: 69376
lpm packets processed: 67072
acl-fw packets processed: 57088
nat-tcp-v4 packets processed: 64704
maglev packets processed: 69440
lpm packets processed: 67136
acl-fw packets processed: 57152
nat-tcp-v4 packets processed: 64768
maglev packets processed: 69504
lpm packets processed: 67200
acl-fw packets processed: 57216
nat-tcp-v4 packets processed: 64832
maglev packets processed: 69568
lpm packets processed: 67264
acl-fw packets processed: 57280
nat-tcp-v4 packets processed: 64896
maglev packets processed: 69632
lpm packets processed: 67328
acl-fw packets processed: 57344
maglev packets processed: 69696
lpm packets processed: 67392
nat-tcp-v4 packets processed: 64960
acl-fw packets processed: 57408
maglev packets processed: 69760
lpm packets processed: 67456
nat-tcp-v4 packets processed: 65024
acl-fw packets processed: 57472
maglev packets processed: 69824
lpm packets processed: 67520
nat-tcp-v4 packets processed: 65088
acl-fw packets processed: 57536
maglev packets processed: 69888
lpm packets processed: 67584
nat-tcp-v4 packets processed: 65152
acl-fw packets processed: 57600
maglev packets processed: 69952
lpm packets processed: 67648
nat-tcp-v4 packets processed: 65216
acl-fw packets processed: 57664
maglev packets processed: 70016
lpm packets processed: 67712
nat-tcp-v4 packets processed: 65280
acl-fw packets processed: 57728
maglev packets processed: 70080
lpm packets processed: 67776
nat-tcp-v4 packets processed: 65344
acl-fw packets processed: 57792
maglev packets processed: 70144
lpm packets processed: 67840
nat-tcp-v4 packets processed: 65408
acl-fw packets processed: 57856
maglev packets processed: 70208
lpm packets processed: 67904
nat-tcp-v4 packets processed: 65472
acl-fw packets processed: 57920
maglev packets processed: 70272
lpm packets processed: 67968
acl-fw packets processed: 57984
maglev packets processed: 70336
nat-tcp-v4 packets processed: 65536
lpm packets processed: 68032
acl-fw packets processed: 58048
lpm packets processed: 68096
maglev packets processed: 70400
nat-tcp-v4 packets processed: 65600
lpm packets processed: 68160
maglev packets processed: 70464
nat-tcp-v4 packets processed: 65664
acl-fw packets processed: 58112
lpm packets processed: 68224
maglev packets processed: 70528
nat-tcp-v4 packets processed: 65728
acl-fw packets processed: 58176
lpm packets processed: 68288
maglev packets processed: 70592
nat-tcp-v4 packets processed: 65792
acl-fw packets processed: 58240
lpm packets processed: 68352
maglev packets processed: 70656
nat-tcp-v4 packets processed: 65856
acl-fw packets processed: 58304
lpm packets processed: 68416
maglev packets processed: 70720
nat-tcp-v4 packets processed: 65920
acl-fw packets processed: 58368
lpm packets processed: 68480
maglev packets processed: 70784
nat-tcp-v4 packets processed: 65984
acl-fw packets processed: 58432
lpm packets processed: 68544
maglev packets processed: 70848
nat-tcp-v4 packets processed: 66048
acl-fw packets processed: 58496
lpm packets processed: 68608
maglev packets processed: 70912
nat-tcp-v4 packets processed: 66112
acl-fw packets processed: 58560
lpm packets processed: 68672
maglev packets processed: 70976
nat-tcp-v4 packets processed: 66176
acl-fw packets processed: 58624
lpm packets processed: 68736
maglev packets processed: 71040
nat-tcp-v4 packets processed: 66240
acl-fw packets processed: 58688
lpm packets processed: 68800
maglev packets processed: 71104
nat-tcp-v4 packets processed: 66304
acl-fw packets processed: 58752
lpm packets processed: 68864
maglev packets processed: 71168
nat-tcp-v4 packets processed: 66368
acl-fw packets processed: 58816
lpm packets processed: 68928
maglev packets processed: 71232
nat-tcp-v4 packets processed: 66432
acl-fw packets processed: 58880
lpm packets processed: 68992
maglev packets processed: 71296
nat-tcp-v4 packets processed: 66496
acl-fw packets processed: 58944
lpm packets processed: 69056
maglev packets processed: 71360
nat-tcp-v4 packets processed: 66560
acl-fw packets processed: 59008
lpm packets processed: 69120
maglev packets processed: 71424
nat-tcp-v4 packets processed: 66624
acl-fw packets processed: 59072
lpm packets processed: 69184
maglev packets processed: 71488
nat-tcp-v4 packets processed: 66688
acl-fw packets processed: 59136
lpm packets processed: 69248
maglev packets processed: 71552
nat-tcp-v4 packets processed: 66752
lpm packets processed: 69312
acl-fw packets processed: 59200
maglev packets processed: 71616
nat-tcp-v4 packets processed: 66816
lpm packets processed: 69376
acl-fw packets processed: 59264
maglev packets processed: 71680
nat-tcp-v4 packets processed: 66880
lpm packets processed: 69440
acl-fw packets processed: 59328
maglev packets processed: 71744
nat-tcp-v4 packets processed: 66944
lpm packets processed: 69504
acl-fw packets processed: 59392
maglev packets processed: 71808
nat-tcp-v4 packets processed: 67008
lpm packets processed: 69568
maglev packets processed: 71872
acl-fw packets processed: 59456
nat-tcp-v4 packets processed: 67072
lpm packets processed: 69632
maglev packets processed: 71936
acl-fw packets processed: 59520
nat-tcp-v4 packets processed: 67136
lpm packets processed: 69696
maglev packets processed: 72000
acl-fw packets processed: 59584
nat-tcp-v4 packets processed: 67200
lpm packets processed: 69760
maglev packets processed: 72064
acl-fw packets processed: 59648
nat-tcp-v4 packets processed: 67264
lpm packets processed: 69824
maglev packets processed: 72128
acl-fw packets processed: 59712
nat-tcp-v4 packets processed: 67328
lpm packets processed: 69888
maglev packets processed: 72192
acl-fw packets processed: 59776
nat-tcp-v4 packets processed: 67392
lpm packets processed: 69952
maglev packets processed: 72256
acl-fw packets processed: 59840
nat-tcp-v4 packets processed: 67456
lpm packets processed: 70016
maglev packets processed: 72320
acl-fw packets processed: 59904
nat-tcp-v4 packets processed: 67520
lpm packets processed: 70080
maglev packets processed: 72384
acl-fw packets processed: 59968
nat-tcp-v4 packets processed: 67584
lpm packets processed: 70144
maglev packets processed: 72448
acl-fw packets processed: 60032
nat-tcp-v4 packets processed: 67648
lpm packets processed: 70208
maglev packets processed: 72512
acl-fw packets processed: 60096
lpm packets processed: 70272
nat-tcp-v4 packets processed: 67712
maglev packets processed: 72576
acl-fw packets processed: 60160
lpm packets processed: 70336
nat-tcp-v4 packets processed: 67776
maglev packets processed: 72640
acl-fw packets processed: 60224
lpm packets processed: 70400
nat-tcp-v4 packets processed: 67840
maglev packets processed: 72704
lpm packets processed: 70464
acl-fw packets processed: 60288
nat-tcp-v4 packets processed: 67904
maglev packets processed: 72768
lpm packets processed: 70528
acl-fw packets processed: 60352
nat-tcp-v4 packets processed: 67968
maglev packets processed: 72832
lpm packets processed: 70592
nat-tcp-v4 packets processed: 68032
acl-fw packets processed: 60416
maglev packets processed: 72896
lpm packets processed: 70656
nat-tcp-v4 packets processed: 68096
acl-fw packets processed: 60480
maglev packets processed: 72960
lpm packets processed: 70720
nat-tcp-v4 packets processed: 68160
acl-fw packets processed: 60544
maglev packets processed: 73024
lpm packets processed: 70784
nat-tcp-v4 packets processed: 68224
acl-fw packets processed: 60608
maglev packets processed: 73088
lpm packets processed: 70848
nat-tcp-v4 packets processed: 68288
maglev packets processed: 73152
acl-fw packets processed: 60672
lpm packets processed: 70912
nat-tcp-v4 packets processed: 68352
maglev packets processed: 73216
acl-fw packets processed: 60736
lpm packets processed: 70976
nat-tcp-v4 packets processed: 68416
maglev packets processed: 73280
acl-fw packets processed: 60800
lpm packets processed: 71040
nat-tcp-v4 packets processed: 68480
maglev packets processed: 73344
acl-fw packets processed: 60864
lpm packets processed: 71104
nat-tcp-v4 packets processed: 68544
maglev packets processed: 73408
acl-fw packets processed: 60928
lpm packets processed: 71168
nat-tcp-v4 packets processed: 68608
maglev packets processed: 73472
acl-fw packets processed: 60992
lpm packets processed: 71232
nat-tcp-v4 packets processed: 68672
maglev packets processed: 73536
acl-fw packets processed: 61056
lpm packets processed: 71296
maglev packets processed: 73600
nat-tcp-v4 packets processed: 68736
acl-fw packets processed: 61120
lpm packets processed: 71360
maglev packets processed: 73664
nat-tcp-v4 packets processed: 68800
acl-fw packets processed: 61184
lpm packets processed: 71424
maglev packets processed: 73728
nat-tcp-v4 packets processed: 68864
acl-fw packets processed: 61248
lpm packets processed: 71488
maglev packets processed: 73792
nat-tcp-v4 packets processed: 68928
acl-fw packets processed: 61312
lpm packets processed: 71552
maglev packets processed: 73856
nat-tcp-v4 packets processed: 68992
lpm packets processed: 71616
acl-fw packets processed: 61376
maglev packets processed: 73920
nat-tcp-v4 packets processed: 69056
lpm packets processed: 71680
acl-fw packets processed: 61440
maglev packets processed: 73984
nat-tcp-v4 packets processed: 69120
lpm packets processed: 71744
acl-fw packets processed: 61504
maglev packets processed: 74048
nat-tcp-v4 packets processed: 69184
lpm packets processed: 71808
acl-fw packets processed: 61568
maglev packets processed: 74112
nat-tcp-v4 packets processed: 69248
lpm packets processed: 71872
acl-fw packets processed: 61632
maglev packets processed: 74176
nat-tcp-v4 packets processed: 69312
lpm packets processed: 71936
acl-fw packets processed: 61696
maglev packets processed: 74240
nat-tcp-v4 packets processed: 69376
lpm packets processed: 72000
acl-fw packets processed: 61760
maglev packets processed: 74304
nat-tcp-v4 packets processed: 69440
lpm packets processed: 72064
acl-fw packets processed: 61824
maglev packets processed: 74368
nat-tcp-v4 packets processed: 69504
lpm packets processed: 72128
acl-fw packets processed: 61888
maglev packets processed: 74432
nat-tcp-v4 packets processed: 69568
lpm packets processed: 72192
acl-fw packets processed: 61952
maglev packets processed: 74496
nat-tcp-v4 packets processed: 69632
lpm packets processed: 72256
acl-fw packets processed: 62016
maglev packets processed: 74560
nat-tcp-v4 packets processed: 69696
lpm packets processed: 72320
maglev packets processed: 74624
acl-fw packets processed: 62080
nat-tcp-v4 packets processed: 69760
lpm packets processed: 72384
maglev packets processed: 74688
acl-fw packets processed: 62144
nat-tcp-v4 packets processed: 69824
lpm packets processed: 72448
maglev packets processed: 74752
acl-fw packets processed: 62208
lpm packets processed: 72512
nat-tcp-v4 packets processed: 69888
maglev packets processed: 74816
acl-fw packets processed: 62272
lpm packets processed: 72576
nat-tcp-v4 packets processed: 69952
maglev packets processed: 74880
acl-fw packets processed: 62336
lpm packets processed: 72640
nat-tcp-v4 packets processed: 70016
maglev packets processed: 74944
acl-fw packets processed: 62400
lpm packets processed: 72704
nat-tcp-v4 packets processed: 70080
maglev packets processed: 75008
acl-fw packets processed: 62464
lpm packets processed: 72768
nat-tcp-v4 packets processed: 70144
maglev packets processed: 75072
lpm packets processed: 72832
acl-fw packets processed: 62528
nat-tcp-v4 packets processed: 70208
maglev packets processed: 75136
lpm packets processed: 72896
acl-fw packets processed: 62592
nat-tcp-v4 packets processed: 70272
a thread in cpu3 reached the max instruction count @ 526320634098
maglev packets processed: 75200
lpm packets processed: 72960
acl-fw packets processed: 62656
nat-tcp-v4 packets processed: 70336
maglev packets processed: 75264
lpm packets processed: 73024
acl-fw packets processed: 62720
a thread in cpu1 reached the max instruction count @ 526992438612
nat-tcp-v4 packets processed: 70400
maglev packets processed: 75328
lpm packets processed: 73088
acl-fw packets processed: 62784
nat-tcp-v4 packets processed: 70464
maglev packets processed: 75392
lpm packets processed: 73152
acl-fw packets processed: 62848
nat-tcp-v4 packets processed: 70528
maglev packets processed: 75456
a thread in cpu2 reached the max instruction count @ 528010779300
lpm packets processed: 73216
nat-tcp-v4 packets processed: 70592
acl-fw packets processed: 62912
maglev packets processed: 75520
lpm packets processed: 73280
nat-tcp-v4 packets processed: 70656
acl-fw packets processed: 62976
maglev packets processed: 75584
lpm packets processed: 73344
nat-tcp-v4 packets processed: 70720
acl-fw packets processed: 63040
maglev packets processed: 75648
lpm packets processed: 73408
nat-tcp-v4 packets processed: 70784
acl-fw packets processed: 63104
maglev packets processed: 75712
a thread in cpu0 reached the max instruction count @ 529571344254
Switched CPUS @ tick 529571344254
Changing memory mode to timing
switching cpus
**** REAL SIMULATION ****
info: Entering event queue @ 529571344254.  Starting simulation...
lpm packets processed: 73472
nat-tcp-v4 packets processed: 70848
acl-fw packets processed: 63168
maglev packets processed: 75776
lpm packets processed: 73536
nat-tcp-v4 packets processed: 70912
maglev packets processed: 75840
lpm packets processed: 73600
acl-fw packets processed: 63232
nat-tcp-v4 packets processed: 70976
maglev packets processed: 75904
lpm packets processed: 73664
acl-fw packets processed: 63296
maglev packets processed: 75968
nat-tcp-v4 packets processed: 71040
lpm packets processed: 73728
acl-fw packets processed: 63360
maglev packets processed: 76032
lpm packets processed: 73792
nat-tcp-v4 packets processed: 71104
acl-fw packets processed: 63424
maglev packets processed: 76096
lpm packets processed: 73856
nat-tcp-v4 packets processed: 71168
acl-fw packets processed: 63488
lpm packets processed: 73920
maglev packets processed: 76160
nat-tcp-v4 packets processed: 71232
lpm packets processed: 73984
maglev packets processed: 76224
acl-fw packets processed: 63552
nat-tcp-v4 packets processed: 71296
lpm packets processed: 74048
maglev packets processed: 76288
acl-fw packets processed: 63616
nat-tcp-v4 packets processed: 71360
lpm packets processed: 74112
maglev packets processed: 76352
acl-fw packets processed: 63680
nat-tcp-v4 packets processed: 71424
lpm packets processed: 74176
maglev packets processed: 76416
acl-fw packets processed: 63744
nat-tcp-v4 packets processed: 71488
lpm packets processed: 74240
maglev packets processed: 76480
lpm packets processed: 74304
acl-fw packets processed: 63808
nat-tcp-v4 packets processed: 71552
maglev packets processed: 76544
a thread in cpu3 reached the max instruction count @ 533362385913
a thread in cpu2 reached the max instruction count @ 533438266152
lpm packets processed: 74368
maglev packets processed: 76608
nat-tcp-v4 packets processed: 71616
acl-fw packets processed: 63872
a thread in cpu1 reached the max instruction count @ 533764586166
lpm packets processed: 74432
Exiting @ tick 533901652398 because a thread in cpu0 reached the max instruction count
