
---------- Begin Simulation Statistics ----------
sim_seconds                                  0.116619                       # Number of seconds simulated
sim_ticks                                116618779655                       # Number of ticks simulated
final_tick                               1171449397734                       # Number of ticks from beginning of simulation (restored from checkpoints and never reset)
sim_freq                                 1000000000000                       # Frequency of simulated ticks
host_inst_rate                                  28022                       # Simulator instruction rate (inst/s)
host_op_rate                                    35343                       # Simulator op (including micro ops) rate (op/s)
host_tick_rate                                1483496                       # Simulator tick rate (ticks/s)
host_mem_usage                               16887296                       # Number of bytes of host memory used
host_seconds                                 78610.76                       # Real time elapsed on the host
sim_insts                                  2202864809                       # Number of instructions simulated
sim_ops                                    2778332234                       # Number of ops (including micro ops) simulated
system.physmem.bytes_read::switch_cpus0.inst         1792                       # Number of bytes read from this memory
system.physmem.bytes_read::switch_cpus0.data       981888                       # Number of bytes read from this memory
system.physmem.bytes_read::switch_cpus1.inst         1920                       # Number of bytes read from this memory
system.physmem.bytes_read::switch_cpus1.data       797440                       # Number of bytes read from this memory
system.physmem.bytes_read::total              1783040                       # Number of bytes read from this memory
system.physmem.bytes_inst_read::switch_cpus0.inst         1792                       # Number of instructions bytes read from this memory
system.physmem.bytes_inst_read::switch_cpus1.inst         1920                       # Number of instructions bytes read from this memory
system.physmem.bytes_inst_read::total            3712                       # Number of instructions bytes read from this memory
system.physmem.bytes_written::writebacks      1014528                       # Number of bytes written to this memory
system.physmem.bytes_written::total           1014528                       # Number of bytes written to this memory
system.physmem.num_reads::switch_cpus0.inst           14                       # Number of read requests responded to by this memory
system.physmem.num_reads::switch_cpus0.data         7671                       # Number of read requests responded to by this memory
system.physmem.num_reads::switch_cpus1.inst           15                       # Number of read requests responded to by this memory
system.physmem.num_reads::switch_cpus1.data         6230                       # Number of read requests responded to by this memory
system.physmem.num_reads::total                 13930                       # Number of read requests responded to by this memory
system.physmem.num_writes::writebacks            7926                       # Number of write requests responded to by this memory
system.physmem.num_writes::functional               0                       # Number of write requests responded to by this memory
system.physmem.num_writes::interrupt                0                       # Number of write requests responded to by this memory
system.physmem.num_writes::switch_cpus0.dtb.walker            0                       # Number of write requests responded to by this memory
system.physmem.num_writes::switch_cpus0.itb.walker            0                       # Number of write requests responded to by this memory
system.physmem.num_writes::switch_cpus0.inst            0                       # Number of write requests responded to by this memory
system.physmem.num_writes::switch_cpus0.data            0                       # Number of write requests responded to by this memory
system.physmem.num_writes::switch_cpus1.dtb.walker            0                       # Number of write requests responded to by this memory
system.physmem.num_writes::switch_cpus1.itb.walker            0                       # Number of write requests responded to by this memory
system.physmem.num_writes::switch_cpus1.inst            0                       # Number of write requests responded to by this memory
system.physmem.num_writes::switch_cpus1.data            0                       # Number of write requests responded to by this memory
system.physmem.num_writes::cpu0.dtb.walker            0                       # Number of write requests responded to by this memory
system.physmem.num_writes::cpu0.itb.walker            0                       # Number of write requests responded to by this memory
system.physmem.num_writes::cpu0.inst                0                       # Number of write requests responded to by this memory
system.physmem.num_writes::cpu0.data                0                       # Number of write requests responded to by this memory
system.physmem.num_writes::cpu1.dtb.walker            0                       # Number of write requests responded to by this memory
system.physmem.num_writes::cpu1.itb.walker            0                       # Number of write requests responded to by this memory
system.physmem.num_writes::cpu1.inst                0                       # Number of write requests responded to by this memory
system.physmem.num_writes::cpu1.data                0                       # Number of write requests responded to by this memory
system.physmem.num_writes::total                 7926                       # Number of write requests responded to by this memory
system.physmem.bw_read::switch_cpus0.inst        15366                       # Total read bandwidth from this memory (bytes/s)
system.physmem.bw_read::switch_cpus0.data      8419639                       # Total read bandwidth from this memory (bytes/s)
system.physmem.bw_read::switch_cpus1.inst        16464                       # Total read bandwidth from this memory (bytes/s)
system.physmem.bw_read::switch_cpus1.data      6838007                       # Total read bandwidth from this memory (bytes/s)
system.physmem.bw_read::total                15289476                       # Total read bandwidth from this memory (bytes/s)
system.physmem.bw_inst_read::switch_cpus0.inst        15366                       # Instruction read bandwidth from this memory (bytes/s)
system.physmem.bw_inst_read::switch_cpus1.inst        16464                       # Instruction read bandwidth from this memory (bytes/s)
system.physmem.bw_inst_read::total              31830                       # Instruction read bandwidth from this memory (bytes/s)
system.physmem.bw_write::writebacks           8699525                       # Write bandwidth from this memory (bytes/s)
system.physmem.bw_write::total                8699525                       # Write bandwidth from this memory (bytes/s)
system.physmem.bw_total::writebacks           8699525                       # Total bandwidth to/from this memory (bytes/s)
system.physmem.bw_total::switch_cpus0.inst        15366                       # Total bandwidth to/from this memory (bytes/s)
system.physmem.bw_total::switch_cpus0.data      8419639                       # Total bandwidth to/from this memory (bytes/s)
system.physmem.bw_total::switch_cpus1.inst        16464                       # Total bandwidth to/from this memory (bytes/s)
system.physmem.bw_total::switch_cpus1.data      6838007                       # Total bandwidth to/from this memory (bytes/s)
system.physmem.bw_total::total               23989001                       # Total bandwidth to/from this memory (bytes/s)
system.switch_cpus0.dtb.inst_hits                   0                       # ITB inst hits
system.switch_cpus0.dtb.inst_misses                 0                       # ITB inst misses
system.switch_cpus0.dtb.read_hits                   0                       # DTB read hits
system.switch_cpus0.dtb.read_misses                 0                       # DTB read misses
system.switch_cpus0.dtb.write_hits                  0                       # DTB write hits
system.switch_cpus0.dtb.write_misses                0                       # DTB write misses
system.switch_cpus0.dtb.flush_tlb                   0                       # Number of times complete TLB was flushed
system.switch_cpus0.dtb.flush_tlb_mva               0                       # Number of times TLB was flushed by MVA
system.switch_cpus0.dtb.flush_tlb_mva_asid            0                       # Number of times TLB was flushed by MVA & ASID
system.switch_cpus0.dtb.flush_tlb_asid              0                       # Number of times TLB was flushed by ASID
system.switch_cpus0.dtb.flush_entries               0                       # Number of entries that have been flushed from TLB
system.switch_cpus0.dtb.align_faults                0                       # Number of TLB faults due to alignment restrictions
system.switch_cpus0.dtb.prefetch_faults             0                       # Number of TLB faults due to prefetch
system.switch_cpus0.dtb.domain_faults               0                       # Number of TLB faults due to domain restrictions
system.switch_cpus0.dtb.perms_faults                0                       # Number of TLB faults due to permissions restrictions
system.switch_cpus0.dtb.read_accesses               0                       # DTB read accesses
system.switch_cpus0.dtb.write_accesses              0                       # DTB write accesses
system.switch_cpus0.dtb.inst_accesses               0                       # ITB inst accesses
system.switch_cpus0.dtb.hits                        0                       # DTB hits
system.switch_cpus0.dtb.misses                      0                       # DTB misses
system.switch_cpus0.dtb.accesses                    0                       # DTB accesses
system.switch_cpus0.itb.inst_hits                   0                       # ITB inst hits
system.switch_cpus0.itb.inst_misses                 0                       # ITB inst misses
system.switch_cpus0.itb.read_hits                   0                       # DTB read hits
system.switch_cpus0.itb.read_misses                 0                       # DTB read misses
system.switch_cpus0.itb.write_hits                  0                       # DTB write hits
system.switch_cpus0.itb.write_misses                0                       # DTB write misses
system.switch_cpus0.itb.flush_tlb                   0                       # Number of times complete TLB was flushed
system.switch_cpus0.itb.flush_tlb_mva               0                       # Number of times TLB was flushed by MVA
system.switch_cpus0.itb.flush_tlb_mva_asid            0                       # Number of times TLB was flushed by MVA & ASID
system.switch_cpus0.itb.flush_tlb_asid              0                       # Number of times TLB was flushed by ASID
system.switch_cpus0.itb.flush_entries               0                       # Number of entries that have been flushed from TLB
system.switch_cpus0.itb.align_faults                0                       # Number of TLB faults due to alignment restrictions
system.switch_cpus0.itb.prefetch_faults             0                       # Number of TLB faults due to prefetch
system.switch_cpus0.itb.domain_faults               0                       # Number of TLB faults due to domain restrictions
system.switch_cpus0.itb.perms_faults                0                       # Number of TLB faults due to permissions restrictions
system.switch_cpus0.itb.read_accesses               0                       # DTB read accesses
system.switch_cpus0.itb.write_accesses              0                       # DTB write accesses
system.switch_cpus0.itb.inst_accesses               0                       # ITB inst accesses
system.switch_cpus0.itb.hits                        0                       # DTB hits
system.switch_cpus0.itb.misses                      0                       # DTB misses
system.switch_cpus0.itb.accesses                    0                       # DTB accesses
system.cpu0.workload.num_syscalls                   0                       # Number of system calls
system.switch_cpus0.numCycles               139998536                       # number of cpu cycles simulated
system.switch_cpus0.numWorkItemsStarted             0                       # number of work items this cpu started
system.switch_cpus0.numWorkItemsCompleted            0                       # number of work items this cpu completed
system.switch_cpus0.BPredUnit.lookups        23406164                       # Number of BP lookups
system.switch_cpus0.BPredUnit.condPredicted     18985815                       # Number of conditional branches predicted
system.switch_cpus0.BPredUnit.condIncorrect      1996201                       # Number of conditional branches incorrect
system.switch_cpus0.BPredUnit.BTBLookups      9677943                       # Number of BTB lookups
system.switch_cpus0.BPredUnit.BTBHits         9018625                       # Number of BTB hits
system.switch_cpus0.BPredUnit.BTBCorrect            0                       # Number of correct BTB predictions (this stat may not work properly.
system.switch_cpus0.BPredUnit.usedRAS         2522108                       # Number of times the RAS was used to get a target.
system.switch_cpus0.BPredUnit.RASInCorrect        92541                       # Number of incorrect RAS predictions.
system.switch_cpus0.fetch.icacheStallCycles    102324527                       # Number of cycles fetch is stalled on an Icache miss
system.switch_cpus0.fetch.Insts             127976997                       # Number of instructions fetch has processed
system.switch_cpus0.fetch.Branches           23406164                       # Number of branches that fetch encountered
system.switch_cpus0.fetch.predictedBranches     11540733                       # Number of branches that fetch has predicted taken
system.switch_cpus0.fetch.Cycles             28189375                       # Number of cycles fetch has run and was not squashing or blocked
system.switch_cpus0.fetch.SquashCycles        6498965                       # Number of cycles fetch has spent squashing
system.switch_cpus0.fetch.BlockedCycles       2781749                       # Number of cycles fetch has spent blocked
system.switch_cpus0.fetch.CacheLines         11951277                       # Number of cache lines fetched
system.switch_cpus0.fetch.IcacheSquashes      1569423                       # Number of outstanding Icache misses that were squashed
system.switch_cpus0.fetch.rateDist::samples    137772881                       # Number of instructions fetched each cycle (Total)
system.switch_cpus0.fetch.rateDist::mean     1.137278                       # Number of instructions fetched each cycle (Total)
system.switch_cpus0.fetch.rateDist::stdev     2.541123                       # Number of instructions fetched each cycle (Total)
system.switch_cpus0.fetch.rateDist::underflows            0      0.00%      0.00% # Number of instructions fetched each cycle (Total)
system.switch_cpus0.fetch.rateDist::0       109583506     79.54%     79.54% # Number of instructions fetched each cycle (Total)
system.switch_cpus0.fetch.rateDist::1         1985967      1.44%     80.98% # Number of instructions fetched each cycle (Total)
system.switch_cpus0.fetch.rateDist::2         3646572      2.65%     83.63% # Number of instructions fetched each cycle (Total)
system.switch_cpus0.fetch.rateDist::3         3291415      2.39%     86.02% # Number of instructions fetched each cycle (Total)
system.switch_cpus0.fetch.rateDist::4         2102511      1.53%     87.54% # Number of instructions fetched each cycle (Total)
system.switch_cpus0.fetch.rateDist::5         1715024      1.24%     88.79% # Number of instructions fetched each cycle (Total)
system.switch_cpus0.fetch.rateDist::6          997614      0.72%     89.51% # Number of instructions fetched each cycle (Total)
system.switch_cpus0.fetch.rateDist::7         1040311      0.76%     90.27% # Number of instructions fetched each cycle (Total)
system.switch_cpus0.fetch.rateDist::8        13409961      9.73%    100.00% # Number of instructions fetched each cycle (Total)
system.switch_cpus0.fetch.rateDist::overflows            0      0.00%    100.00% # Number of instructions fetched each cycle (Total)
system.switch_cpus0.fetch.rateDist::min_value            0                       # Number of instructions fetched each cycle (Total)
system.switch_cpus0.fetch.rateDist::max_value            8                       # Number of instructions fetched each cycle (Total)
system.switch_cpus0.fetch.rateDist::total    137772881                       # Number of instructions fetched each cycle (Total)
system.switch_cpus0.fetch.branchRate         0.167189                       # Number of branch fetches per cycle
system.switch_cpus0.fetch.rate               0.914131                       # Number of inst fetches per cycle
system.switch_cpus0.decode.IdleCycles       101286250                       # Number of cycles decode is idle
system.switch_cpus0.decode.BlockedCycles      4136039                       # Number of cycles decode is blocked
system.switch_cpus0.decode.RunCycles         27826645                       # Number of cycles decode is running
system.switch_cpus0.decode.UnblockCycles        46932                       # Number of cycles decode is unblocking
system.switch_cpus0.decode.SquashCycles       4477007                       # Number of cycles decode is squashing
system.switch_cpus0.decode.BranchResolved      4049440                       # Number of times decode resolved a branch
system.switch_cpus0.decode.BranchMispred          224                       # Number of times decode detected a branch misprediction
system.switch_cpus0.decode.DecodedInsts     154928500                       # Number of instructions handled by decode
system.switch_cpus0.decode.SquashedInsts         1288                       # Number of squashed instructions handled by decode
system.switch_cpus0.rename.SquashCycles       4477007                       # Number of cycles rename is squashing
system.switch_cpus0.rename.IdleCycles       102100312                       # Number of cycles rename is idle
system.switch_cpus0.rename.BlockCycles        1047162                       # Number of cycles rename is blocking
system.switch_cpus0.rename.serializeStallCycles      1933922                       # count of cycles rename stalled for serializing inst
system.switch_cpus0.rename.RunCycles         27041058                       # Number of cycles rename is running
system.switch_cpus0.rename.UnblockCycles      1173412                       # Number of cycles rename is unblocking
system.switch_cpus0.rename.RenamedInsts     153237260                       # Number of instructions processed by rename
system.switch_cpus0.rename.ROBFullEvents           10                       # Number of times rename has blocked due to ROB full
system.switch_cpus0.rename.IQFullEvents        220573                       # Number of times rename has blocked due to IQ full
system.switch_cpus0.rename.LSQFullEvents       508148                       # Number of times rename has blocked due to LSQ full
system.switch_cpus0.rename.RenamedOperands    216733716                       # Number of destination operands rename has renamed
system.switch_cpus0.rename.RenameLookups    713608667                       # Number of register rename lookups that rename has made
system.switch_cpus0.rename.int_rename_lookups    713608667                       # Number of integer rename lookups
system.switch_cpus0.rename.CommittedMaps    171704564                       # Number of HB maps that are committed
system.switch_cpus0.rename.UndoneMaps        45029147                       # Number of HB maps that are undone due to squashing
system.switch_cpus0.rename.serializingInsts        33812                       # count of serializing insts renamed
system.switch_cpus0.rename.tempSerializingInsts        16906                       # count of temporary serializing insts renamed
system.switch_cpus0.rename.skidInsts          4222409                       # count of insts added to the skid buffer
system.switch_cpus0.memDep0.insertedLoads     14542741                       # Number of loads inserted to the mem dependence unit.
system.switch_cpus0.memDep0.insertedStores      7211476                       # Number of stores inserted to the mem dependence unit.
system.switch_cpus0.memDep0.conflictingLoads        83249                       # Number of conflicting loads.
system.switch_cpus0.memDep0.conflictingStores      1614679                       # Number of conflicting stores.
system.switch_cpus0.iq.iqInstsAdded         150369222                       # Number of instructions added to the IQ (excludes non-spec)
system.switch_cpus0.iq.iqNonSpecInstsAdded        33812                       # Number of non-speculative instructions added to the IQ
system.switch_cpus0.iq.iqInstsIssued        139753958                       # Number of instructions issued
system.switch_cpus0.iq.iqSquashedInstsIssued       156439                       # Number of squashed instructions issued
system.switch_cpus0.iq.iqSquashedInstsExamined     26309756                       # Number of squashed instructions iterated over during squash; mainly for profiling
system.switch_cpus0.iq.iqSquashedOperandsExamined     57779560                       # Number of squashed operands that are examined and possibly removed from graph
system.switch_cpus0.iq.issued_per_cycle::samples    137772881                       # Number of insts issued each cycle
system.switch_cpus0.iq.issued_per_cycle::mean     1.014379                       # Number of insts issued each cycle
system.switch_cpus0.iq.issued_per_cycle::stdev     1.560072                       # Number of insts issued each cycle
system.switch_cpus0.iq.issued_per_cycle::underflows            0      0.00%      0.00% # Number of insts issued each cycle
system.switch_cpus0.iq.issued_per_cycle::0     79230994     57.51%     57.51% # Number of insts issued each cycle
system.switch_cpus0.iq.issued_per_cycle::1     24091383     17.49%     74.99% # Number of insts issued each cycle
system.switch_cpus0.iq.issued_per_cycle::2     12673158      9.20%     84.19% # Number of insts issued each cycle
system.switch_cpus0.iq.issued_per_cycle::3      7321925      5.31%     89.51% # Number of insts issued each cycle
system.switch_cpus0.iq.issued_per_cycle::4      8104799      5.88%     95.39% # Number of insts issued each cycle
system.switch_cpus0.iq.issued_per_cycle::5      3008319      2.18%     97.57% # Number of insts issued each cycle
system.switch_cpus0.iq.issued_per_cycle::6      2668073      1.94%     99.51% # Number of insts issued each cycle
system.switch_cpus0.iq.issued_per_cycle::7       512585      0.37%     99.88% # Number of insts issued each cycle
system.switch_cpus0.iq.issued_per_cycle::8       161645      0.12%    100.00% # Number of insts issued each cycle
system.switch_cpus0.iq.issued_per_cycle::overflows            0      0.00%    100.00% # Number of insts issued each cycle
system.switch_cpus0.iq.issued_per_cycle::min_value            0                       # Number of insts issued each cycle
system.switch_cpus0.iq.issued_per_cycle::max_value            8                       # Number of insts issued each cycle
system.switch_cpus0.iq.issued_per_cycle::total    137772881                       # Number of insts issued each cycle
system.switch_cpus0.iq.fu_full::No_OpClass            0      0.00%      0.00% # attempts to use FU when none available
system.switch_cpus0.iq.fu_full::IntAlu         559023     68.73%     68.73% # attempts to use FU when none available
system.switch_cpus0.iq.fu_full::IntMult             0      0.00%     68.73% # attempts to use FU when none available
system.switch_cpus0.iq.fu_full::IntDiv              0      0.00%     68.73% # attempts to use FU when none available
system.switch_cpus0.iq.fu_full::FloatAdd            0      0.00%     68.73% # attempts to use FU when none available
system.switch_cpus0.iq.fu_full::FloatCmp            0      0.00%     68.73% # attempts to use FU when none available
system.switch_cpus0.iq.fu_full::FloatCvt            0      0.00%     68.73% # attempts to use FU when none available
system.switch_cpus0.iq.fu_full::FloatMult            0      0.00%     68.73% # attempts to use FU when none available
system.switch_cpus0.iq.fu_full::FloatDiv            0      0.00%     68.73% # attempts to use FU when none available
system.switch_cpus0.iq.fu_full::FloatSqrt            0      0.00%     68.73% # attempts to use FU when none available
system.switch_cpus0.iq.fu_full::SimdAdd             0      0.00%     68.73% # attempts to use FU when none available
system.switch_cpus0.iq.fu_full::SimdAddAcc            0      0.00%     68.73% # attempts to use FU when none available
system.switch_cpus0.iq.fu_full::SimdAlu             0      0.00%     68.73% # attempts to use FU when none available
system.switch_cpus0.iq.fu_full::SimdCmp             0      0.00%     68.73% # attempts to use FU when none available
system.switch_cpus0.iq.fu_full::SimdCvt             0      0.00%     68.73% # attempts to use FU when none available
system.switch_cpus0.iq.fu_full::SimdMisc            0      0.00%     68.73% # attempts to use FU when none available
system.switch_cpus0.iq.fu_full::SimdMult            0      0.00%     68.73% # attempts to use FU when none available
system.switch_cpus0.iq.fu_full::SimdMultAcc            0      0.00%     68.73% # attempts to use FU when none available
system.switch_cpus0.iq.fu_full::SimdShift            0      0.00%     68.73% # attempts to use FU when none available
system.switch_cpus0.iq.fu_full::SimdShiftAcc            0      0.00%     68.73% # attempts to use FU when none available
system.switch_cpus0.iq.fu_full::SimdSqrt            0      0.00%     68.73% # attempts to use FU when none available
system.switch_cpus0.iq.fu_full::SimdFloatAdd            0      0.00%     68.73% # attempts to use FU when none available
system.switch_cpus0.iq.fu_full::SimdFloatAlu            0      0.00%     68.73% # attempts to use FU when none available
system.switch_cpus0.iq.fu_full::SimdFloatCmp            0      0.00%     68.73% # attempts to use FU when none available
system.switch_cpus0.iq.fu_full::SimdFloatCvt            0      0.00%     68.73% # attempts to use FU when none available
system.switch_cpus0.iq.fu_full::SimdFloatDiv            0      0.00%     68.73% # attempts to use FU when none available
system.switch_cpus0.iq.fu_full::SimdFloatMisc            0      0.00%     68.73% # attempts to use FU when none available
system.switch_cpus0.iq.fu_full::SimdFloatMult            0      0.00%     68.73% # attempts to use FU when none available
system.switch_cpus0.iq.fu_full::SimdFloatMultAcc            0      0.00%     68.73% # attempts to use FU when none available
system.switch_cpus0.iq.fu_full::SimdFloatSqrt            0      0.00%     68.73% # attempts to use FU when none available
system.switch_cpus0.iq.fu_full::MemRead        116485     14.32%     83.05% # attempts to use FU when none available
system.switch_cpus0.iq.fu_full::MemWrite       137836     16.95%    100.00% # attempts to use FU when none available
system.switch_cpus0.iq.fu_full::IprAccess            0      0.00%    100.00% # attempts to use FU when none available
system.switch_cpus0.iq.fu_full::InstPrefetch            0      0.00%    100.00% # attempts to use FU when none available
system.switch_cpus0.iq.FU_type_0::No_OpClass            0      0.00%      0.00% # Type of FU issued
system.switch_cpus0.iq.FU_type_0::IntAlu    117687257     84.21%     84.21% # Type of FU issued
system.switch_cpus0.iq.FU_type_0::IntMult      1978124      1.42%     85.63% # Type of FU issued
system.switch_cpus0.iq.FU_type_0::IntDiv            0      0.00%     85.63% # Type of FU issued
system.switch_cpus0.iq.FU_type_0::FloatAdd            0      0.00%     85.63% # Type of FU issued
system.switch_cpus0.iq.FU_type_0::FloatCmp            0      0.00%     85.63% # Type of FU issued
system.switch_cpus0.iq.FU_type_0::FloatCvt            0      0.00%     85.63% # Type of FU issued
system.switch_cpus0.iq.FU_type_0::FloatMult            0      0.00%     85.63% # Type of FU issued
system.switch_cpus0.iq.FU_type_0::FloatDiv            0      0.00%     85.63% # Type of FU issued
system.switch_cpus0.iq.FU_type_0::FloatSqrt            0      0.00%     85.63% # Type of FU issued
system.switch_cpus0.iq.FU_type_0::SimdAdd            0      0.00%     85.63% # Type of FU issued
system.switch_cpus0.iq.FU_type_0::SimdAddAcc            0      0.00%     85.63% # Type of FU issued
system.switch_cpus0.iq.FU_type_0::SimdAlu            0      0.00%     85.63% # Type of FU issued
system.switch_cpus0.iq.FU_type_0::SimdCmp            0      0.00%     85.63% # Type of FU issued
system.switch_cpus0.iq.FU_type_0::SimdCvt            0      0.00%     85.63% # Type of FU issued
system.switch_cpus0.iq.FU_type_0::SimdMisc            0      0.00%     85.63% # Type of FU issued
system.switch_cpus0.iq.FU_type_0::SimdMult            0      0.00%     85.63% # Type of FU issued
system.switch_cpus0.iq.FU_type_0::SimdMultAcc            0      0.00%     85.63% # Type of FU issued
system.switch_cpus0.iq.FU_type_0::SimdShift            0      0.00%     85.63% # Type of FU issued
system.switch_cpus0.iq.FU_type_0::SimdShiftAcc            0      0.00%     85.63% # Type of FU issued
system.switch_cpus0.iq.FU_type_0::SimdSqrt            0      0.00%     85.63% # Type of FU issued
system.switch_cpus0.iq.FU_type_0::SimdFloatAdd            0      0.00%     85.63% # Type of FU issued
system.switch_cpus0.iq.FU_type_0::SimdFloatAlu            0      0.00%     85.63% # Type of FU issued
system.switch_cpus0.iq.FU_type_0::SimdFloatCmp            0      0.00%     85.63% # Type of FU issued
system.switch_cpus0.iq.FU_type_0::SimdFloatCvt            0      0.00%     85.63% # Type of FU issued
system.switch_cpus0.iq.FU_type_0::SimdFloatDiv            0      0.00%     85.63% # Type of FU issued
system.switch_cpus0.iq.FU_type_0::SimdFloatMisc        16906      0.01%     85.64% # Type of FU issued
system.switch_cpus0.iq.FU_type_0::SimdFloatMult            0      0.00%     85.64% # Type of FU issued
system.switch_cpus0.iq.FU_type_0::SimdFloatMultAcc            0      0.00%     85.64% # Type of FU issued
system.switch_cpus0.iq.FU_type_0::SimdFloatSqrt            0      0.00%     85.64% # Type of FU issued
system.switch_cpus0.iq.FU_type_0::MemRead     12897457      9.23%     94.87% # Type of FU issued
system.switch_cpus0.iq.FU_type_0::MemWrite      7174214      5.13%    100.00% # Type of FU issued
system.switch_cpus0.iq.FU_type_0::IprAccess            0      0.00%    100.00% # Type of FU issued
system.switch_cpus0.iq.FU_type_0::InstPrefetch            0      0.00%    100.00% # Type of FU issued
system.switch_cpus0.iq.FU_type_0::total     139753958                       # Type of FU issued
system.switch_cpus0.iq.rate                  0.998253                       # Inst issue rate
system.switch_cpus0.iq.fu_busy_cnt             813344                       # FU busy when requested
system.switch_cpus0.iq.fu_busy_rate          0.005820                       # FU busy rate (busy events/executed inst)
system.switch_cpus0.iq.int_inst_queue_reads    418250580                       # Number of integer instruction queue reads
system.switch_cpus0.iq.int_inst_queue_writes    176712999                       # Number of integer instruction queue writes
system.switch_cpus0.iq.int_inst_queue_wakeup_accesses    136692388                       # Number of integer instruction queue wakeup accesses
system.switch_cpus0.iq.fp_inst_queue_reads            0                       # Number of floating instruction queue reads
system.switch_cpus0.iq.fp_inst_queue_writes            0                       # Number of floating instruction queue writes
system.switch_cpus0.iq.fp_inst_queue_wakeup_accesses            0                       # Number of floating instruction queue wakeup accesses
system.switch_cpus0.iq.int_alu_accesses     140567302                       # Number of integer alu accesses
system.switch_cpus0.iq.fp_alu_accesses              0                       # Number of floating point alu accesses
system.switch_cpus0.iew.lsq.thread0.forwLoads       270077                       # Number of loads that had data forwarded from stores
system.switch_cpus0.iew.lsq.thread0.invAddrLoads            0                       # Number of loads ignored due to an invalid address
system.switch_cpus0.iew.lsq.thread0.squashedLoads      3349306                       # Number of loads squashed
system.switch_cpus0.iew.lsq.thread0.ignoredResponses           16                       # Number of memory responses ignored because the instruction is squashed
system.switch_cpus0.iew.lsq.thread0.memOrderViolation          209                       # Number of memory ordering violations
system.switch_cpus0.iew.lsq.thread0.squashedStores       120434                       # Number of stores squashed
system.switch_cpus0.iew.lsq.thread0.invAddrSwpfs            0                       # Number of software prefetches ignored due to an invalid address
system.switch_cpus0.iew.lsq.thread0.blockedLoads            0                       # Number of blocked loads due to partial load-store forwarding
system.switch_cpus0.iew.lsq.thread0.rescheduledLoads            0                       # Number of loads that were rescheduled
system.switch_cpus0.iew.lsq.thread0.cacheBlocked            0                       # Number of times an access to memory failed due to the cache being blocked
system.switch_cpus0.iew.iewIdleCycles               0                       # Number of cycles IEW is idle
system.switch_cpus0.iew.iewSquashCycles       4477007                       # Number of cycles IEW is squashing
system.switch_cpus0.iew.iewBlockCycles         680626                       # Number of cycles IEW is blocking
system.switch_cpus0.iew.iewUnblockCycles       103164                       # Number of cycles IEW is unblocking
system.switch_cpus0.iew.iewDispatchedInsts    150403034                       # Number of instructions dispatched to IQ
system.switch_cpus0.iew.iewDispSquashedInsts        61261                       # Number of squashed instructions skipped by dispatch
system.switch_cpus0.iew.iewDispLoadInsts     14542741                       # Number of dispatched load instructions
system.switch_cpus0.iew.iewDispStoreInsts      7211476                       # Number of dispatched store instructions
system.switch_cpus0.iew.iewDispNonSpecInsts        16906                       # Number of dispatched non-speculative instructions
system.switch_cpus0.iew.iewIQFullEvents         89250                       # Number of times the IQ has become full, causing a stall
system.switch_cpus0.iew.iewLSQFullEvents            0                       # Number of times the LSQ has become full, causing a stall
system.switch_cpus0.iew.memOrderViolationEvents          209                       # Number of memory order violations
system.switch_cpus0.iew.predictedTakenIncorrect      1116008                       # Number of branches that were predicted taken incorrectly
system.switch_cpus0.iew.predictedNotTakenIncorrect      1117110                       # Number of branches that were predicted not taken incorrectly
system.switch_cpus0.iew.branchMispredicts      2233118                       # Number of branch mispredicts detected at execute
system.switch_cpus0.iew.iewExecutedInsts    137450528                       # Number of executed instructions
system.switch_cpus0.iew.iewExecLoadInsts     12387023                       # Number of load instructions executed
system.switch_cpus0.iew.iewExecSquashedInsts      2303430                       # Number of squashed instructions skipped in execute
system.switch_cpus0.iew.exec_swp                    0                       # number of swp insts executed
system.switch_cpus0.iew.exec_nop                    0                       # number of nop insts executed
system.switch_cpus0.iew.exec_refs            19560899                       # number of memory reference insts executed
system.switch_cpus0.iew.exec_branches        19563468                       # Number of branches executed
system.switch_cpus0.iew.exec_stores           7173876                       # Number of stores executed
system.switch_cpus0.iew.exec_rate            0.981800                       # Inst execution rate
system.switch_cpus0.iew.wb_sent             136817220                       # cumulative count of insts sent to commit
system.switch_cpus0.iew.wb_count            136692388                       # cumulative count of insts written-back
system.switch_cpus0.iew.wb_producers         79775506                       # num instructions producing a value
system.switch_cpus0.iew.wb_consumers        224041279                       # num instructions consuming a value
system.switch_cpus0.iew.wb_penalized                0                       # number of instrctions required to write to 'other' IQ
system.switch_cpus0.iew.wb_rate              0.976384                       # insts written-back per cycle
system.switch_cpus0.iew.wb_fanout            0.356075                       # average fanout of values written-back
system.switch_cpus0.iew.wb_penalized_rate            0                       # fraction of instructions written-back that wrote to 'other' IQ
system.switch_cpus0.commit.commitCommittedInsts    100000001                       # The number of committed instructions
system.switch_cpus0.commit.commitCommittedOps    123129416                       # The number of committed instructions
system.switch_cpus0.commit.commitSquashedInsts     27274103                       # The number of squashed insts skipped by commit
system.switch_cpus0.commit.commitNonSpecStalls        33812                       # The number of times commit has been forced to stall to communicate backwards
system.switch_cpus0.commit.branchMispredicts      2021337                       # The number of times a branch was mispredicted
system.switch_cpus0.commit.committed_per_cycle::samples    133295874                       # Number of insts commited each cycle
system.switch_cpus0.commit.committed_per_cycle::mean     0.923730                       # Number of insts commited each cycle
system.switch_cpus0.commit.committed_per_cycle::stdev     1.694099                       # Number of insts commited each cycle
system.switch_cpus0.commit.committed_per_cycle::underflows            0      0.00%      0.00% # Number of insts commited each cycle
system.switch_cpus0.commit.committed_per_cycle::0     82646918     62.00%     62.00% # Number of insts commited each cycle
system.switch_cpus0.commit.committed_per_cycle::1     23465737     17.60%     79.61% # Number of insts commited each cycle
system.switch_cpus0.commit.committed_per_cycle::2     11655578      8.74%     88.35% # Number of insts commited each cycle
system.switch_cpus0.commit.committed_per_cycle::3      3960360      2.97%     91.32% # Number of insts commited each cycle
system.switch_cpus0.commit.committed_per_cycle::4      4882913      3.66%     94.99% # Number of insts commited each cycle
system.switch_cpus0.commit.committed_per_cycle::5      1708649      1.28%     96.27% # Number of insts commited each cycle
system.switch_cpus0.commit.committed_per_cycle::6      1205842      0.90%     97.17% # Number of insts commited each cycle
system.switch_cpus0.commit.committed_per_cycle::7       997522      0.75%     97.92% # Number of insts commited each cycle
system.switch_cpus0.commit.committed_per_cycle::8      2772355      2.08%    100.00% # Number of insts commited each cycle
system.switch_cpus0.commit.committed_per_cycle::overflows            0      0.00%    100.00% # Number of insts commited each cycle
system.switch_cpus0.commit.committed_per_cycle::min_value            0                       # Number of insts commited each cycle
system.switch_cpus0.commit.committed_per_cycle::max_value            8                       # Number of insts commited each cycle
system.switch_cpus0.commit.committed_per_cycle::total    133295874                       # Number of insts commited each cycle
system.switch_cpus0.commit.committedInsts    100000001                       # Number of instructions committed
system.switch_cpus0.commit.committedOps     123129416                       # Number of ops (including micro ops) committed
system.switch_cpus0.commit.swp_count                0                       # Number of s/w prefetches committed
system.switch_cpus0.commit.refs              18284477                       # Number of memory references committed
system.switch_cpus0.commit.loads             11193435                       # Number of loads committed
system.switch_cpus0.commit.membars              16906                       # Number of memory barriers committed
system.switch_cpus0.commit.branches          17772285                       # Number of branches committed
system.switch_cpus0.commit.fp_insts                 0                       # Number of committed floating point instructions.
system.switch_cpus0.commit.int_insts        110930287                       # Number of committed integer instructions.
system.switch_cpus0.commit.function_calls      2539564                       # Number of function calls committed.
system.switch_cpus0.commit.bw_lim_events      2772355                       # number cycles where commit BW limit reached
system.switch_cpus0.commit.bw_limited               0                       # number of insts not committed due to BW limits
system.switch_cpus0.rob.rob_reads           280927038                       # The number of ROB reads
system.switch_cpus0.rob.rob_writes          305284237                       # The number of ROB writes
system.switch_cpus0.timesIdled                  41823                       # Number of times that the entire CPU went into an idle state and unscheduled itself
system.switch_cpus0.idleCycles                2225655                       # Total number of cycles that the CPU has spent unscheduled due to idling
system.switch_cpus0.committedInsts          100000001                       # Number of Instructions Simulated
system.switch_cpus0.committedOps            123129416                       # Number of Ops (including micro ops) Simulated
system.switch_cpus0.committedInsts_total    100000001                       # Number of Instructions Simulated
system.switch_cpus0.cpi                      1.399985                       # CPI: Cycles Per Instruction
system.switch_cpus0.cpi_total                1.399985                       # CPI: Total CPI of All Threads
system.switch_cpus0.ipc                      0.714293                       # IPC: Instructions Per Cycle
system.switch_cpus0.ipc_total                0.714293                       # IPC: Total IPC of All Threads
system.switch_cpus0.int_regfile_reads       618894866                       # number of integer regfile reads
system.switch_cpus0.int_regfile_writes      191332194                       # number of integer regfile writes
system.switch_cpus0.misc_regfile_reads      144322297                       # number of misc regfile reads
system.switch_cpus0.misc_regfile_writes         33812                       # number of misc regfile writes
system.switch_cpus1.dtb.inst_hits                   0                       # ITB inst hits
system.switch_cpus1.dtb.inst_misses                 0                       # ITB inst misses
system.switch_cpus1.dtb.read_hits                   0                       # DTB read hits
system.switch_cpus1.dtb.read_misses                 0                       # DTB read misses
system.switch_cpus1.dtb.write_hits                  0                       # DTB write hits
system.switch_cpus1.dtb.write_misses                0                       # DTB write misses
system.switch_cpus1.dtb.flush_tlb                   0                       # Number of times complete TLB was flushed
system.switch_cpus1.dtb.flush_tlb_mva               0                       # Number of times TLB was flushed by MVA
system.switch_cpus1.dtb.flush_tlb_mva_asid            0                       # Number of times TLB was flushed by MVA & ASID
system.switch_cpus1.dtb.flush_tlb_asid              0                       # Number of times TLB was flushed by ASID
system.switch_cpus1.dtb.flush_entries               0                       # Number of entries that have been flushed from TLB
system.switch_cpus1.dtb.align_faults                0                       # Number of TLB faults due to alignment restrictions
system.switch_cpus1.dtb.prefetch_faults             0                       # Number of TLB faults due to prefetch
system.switch_cpus1.dtb.domain_faults               0                       # Number of TLB faults due to domain restrictions
system.switch_cpus1.dtb.perms_faults                0                       # Number of TLB faults due to permissions restrictions
system.switch_cpus1.dtb.read_accesses               0                       # DTB read accesses
system.switch_cpus1.dtb.write_accesses              0                       # DTB write accesses
system.switch_cpus1.dtb.inst_accesses               0                       # ITB inst accesses
system.switch_cpus1.dtb.hits                        0                       # DTB hits
system.switch_cpus1.dtb.misses                      0                       # DTB misses
system.switch_cpus1.dtb.accesses                    0                       # DTB accesses
system.switch_cpus1.itb.inst_hits                   0                       # ITB inst hits
system.switch_cpus1.itb.inst_misses                 0                       # ITB inst misses
system.switch_cpus1.itb.read_hits                   0                       # DTB read hits
system.switch_cpus1.itb.read_misses                 0                       # DTB read misses
system.switch_cpus1.itb.write_hits                  0                       # DTB write hits
system.switch_cpus1.itb.write_misses                0                       # DTB write misses
system.switch_cpus1.itb.flush_tlb                   0                       # Number of times complete TLB was flushed
system.switch_cpus1.itb.flush_tlb_mva               0                       # Number of times TLB was flushed by MVA
system.switch_cpus1.itb.flush_tlb_mva_asid            0                       # Number of times TLB was flushed by MVA & ASID
system.switch_cpus1.itb.flush_tlb_asid              0                       # Number of times TLB was flushed by ASID
system.switch_cpus1.itb.flush_entries               0                       # Number of entries that have been flushed from TLB
system.switch_cpus1.itb.align_faults                0                       # Number of TLB faults due to alignment restrictions
system.switch_cpus1.itb.prefetch_faults             0                       # Number of TLB faults due to prefetch
system.switch_cpus1.itb.domain_faults               0                       # Number of TLB faults due to domain restrictions
system.switch_cpus1.itb.perms_faults                0                       # Number of TLB faults due to permissions restrictions
system.switch_cpus1.itb.read_accesses               0                       # DTB read accesses
system.switch_cpus1.itb.write_accesses              0                       # DTB write accesses
system.switch_cpus1.itb.inst_accesses               0                       # ITB inst accesses
system.switch_cpus1.itb.hits                        0                       # DTB hits
system.switch_cpus1.itb.misses                      0                       # DTB misses
system.switch_cpus1.itb.accesses                    0                       # DTB accesses
system.cpu1.workload.num_syscalls                   0                       # Number of system calls
system.switch_cpus1.numCycles               139998536                       # number of cpu cycles simulated
system.switch_cpus1.numWorkItemsStarted             0                       # number of work items this cpu started
system.switch_cpus1.numWorkItemsCompleted            0                       # number of work items this cpu completed
system.switch_cpus1.BPredUnit.lookups        23550134                       # Number of BP lookups
system.switch_cpus1.BPredUnit.condPredicted     19292870                       # Number of conditional branches predicted
system.switch_cpus1.BPredUnit.condIncorrect      1993313                       # Number of conditional branches incorrect
system.switch_cpus1.BPredUnit.BTBLookups      9628218                       # Number of BTB lookups
system.switch_cpus1.BPredUnit.BTBHits         9311483                       # Number of BTB hits
system.switch_cpus1.BPredUnit.BTBCorrect            0                       # Number of correct BTB predictions (this stat may not work properly.
system.switch_cpus1.BPredUnit.usedRAS         2412333                       # Number of times the RAS was used to get a target.
system.switch_cpus1.BPredUnit.RASInCorrect        91758                       # Number of incorrect RAS predictions.
system.switch_cpus1.fetch.icacheStallCycles    104419457                       # Number of cycles fetch is stalled on an Icache miss
system.switch_cpus1.fetch.Insts             126373323                       # Number of instructions fetch has processed
system.switch_cpus1.fetch.Branches           23550134                       # Number of branches that fetch encountered
system.switch_cpus1.fetch.predictedBranches     11723816                       # Number of branches that fetch has predicted taken
system.switch_cpus1.fetch.Cycles             27387035                       # Number of cycles fetch has run and was not squashing or blocked
system.switch_cpus1.fetch.SquashCycles        5977259                       # Number of cycles fetch has spent squashing
system.switch_cpus1.fetch.BlockedCycles       3717496                       # Number of cycles fetch has spent blocked
system.switch_cpus1.fetch.CacheLines         12216184                       # Number of cache lines fetched
system.switch_cpus1.fetch.IcacheSquashes      1558633                       # Number of outstanding Icache misses that were squashed
system.switch_cpus1.fetch.rateDist::samples    139490733                       # Number of instructions fetched each cycle (Total)
system.switch_cpus1.fetch.rateDist::mean     1.108831                       # Number of instructions fetched each cycle (Total)
system.switch_cpus1.fetch.rateDist::stdev     2.533402                       # Number of instructions fetched each cycle (Total)
system.switch_cpus1.fetch.rateDist::underflows            0      0.00%      0.00% # Number of instructions fetched each cycle (Total)
system.switch_cpus1.fetch.rateDist::0       112103698     80.37%     80.37% # Number of instructions fetched each cycle (Total)
system.switch_cpus1.fetch.rateDist::1         2199022      1.58%     81.94% # Number of instructions fetched each cycle (Total)
system.switch_cpus1.fetch.rateDist::2         3764363      2.70%     84.64% # Number of instructions fetched each cycle (Total)
system.switch_cpus1.fetch.rateDist::3         2181522      1.56%     86.21% # Number of instructions fetched each cycle (Total)
system.switch_cpus1.fetch.rateDist::4         1708988      1.23%     87.43% # Number of instructions fetched each cycle (Total)
system.switch_cpus1.fetch.rateDist::5         1517676      1.09%     88.52% # Number of instructions fetched each cycle (Total)
system.switch_cpus1.fetch.rateDist::6          919599      0.66%     89.18% # Number of instructions fetched each cycle (Total)
system.switch_cpus1.fetch.rateDist::7         2309514      1.66%     90.83% # Number of instructions fetched each cycle (Total)
system.switch_cpus1.fetch.rateDist::8        12786351      9.17%    100.00% # Number of instructions fetched each cycle (Total)
system.switch_cpus1.fetch.rateDist::overflows            0      0.00%    100.00% # Number of instructions fetched each cycle (Total)
system.switch_cpus1.fetch.rateDist::min_value            0                       # Number of instructions fetched each cycle (Total)
system.switch_cpus1.fetch.rateDist::max_value            8                       # Number of instructions fetched each cycle (Total)
system.switch_cpus1.fetch.rateDist::total    139490733                       # Number of instructions fetched each cycle (Total)
system.switch_cpus1.fetch.branchRate         0.168217                       # Number of branch fetches per cycle
system.switch_cpus1.fetch.rate               0.902676                       # Number of inst fetches per cycle
system.switch_cpus1.decode.IdleCycles       103777969                       # Number of cycles decode is idle
system.switch_cpus1.decode.BlockedCycles      4864611                       # Number of cycles decode is blocked
system.switch_cpus1.decode.RunCycles         26810480                       # Number of cycles decode is running
system.switch_cpus1.decode.UnblockCycles        71136                       # Number of cycles decode is unblocking
system.switch_cpus1.decode.SquashCycles       3966535                       # Number of cycles decode is squashing
system.switch_cpus1.decode.BranchResolved      3861278                       # Number of times decode resolved a branch
system.switch_cpus1.decode.BranchMispred          213                       # Number of times decode detected a branch misprediction
system.switch_cpus1.decode.DecodedInsts     152372437                       # Number of instructions handled by decode
system.switch_cpus1.decode.SquashedInsts         1209                       # Number of squashed instructions handled by decode
system.switch_cpus1.rename.SquashCycles       3966535                       # Number of cycles rename is squashing
system.switch_cpus1.rename.IdleCycles       104291149                       # Number of cycles rename is idle
system.switch_cpus1.rename.BlockCycles         595391                       # Number of cycles rename is blocking
system.switch_cpus1.rename.serializeStallCycles      3392642                       # count of cycles rename stalled for serializing inst
system.switch_cpus1.rename.RunCycles         26351503                       # Number of cycles rename is running
system.switch_cpus1.rename.UnblockCycles       893506                       # Number of cycles rename is unblocking
system.switch_cpus1.rename.RenamedInsts     151345202                       # Number of instructions processed by rename
system.switch_cpus1.rename.IQFullEvents         92920                       # Number of times rename has blocked due to IQ full
system.switch_cpus1.rename.LSQFullEvents       518104                       # Number of times rename has blocked due to LSQ full
system.switch_cpus1.rename.RenamedOperands    213631469                       # Number of destination operands rename has renamed
system.switch_cpus1.rename.RenameLookups    704117396                       # Number of register rename lookups that rename has made
system.switch_cpus1.rename.int_rename_lookups    704117396                       # Number of integer rename lookups
system.switch_cpus1.rename.CommittedMaps    171079490                       # Number of HB maps that are committed
system.switch_cpus1.rename.UndoneMaps        42551979                       # Number of HB maps that are undone due to squashing
system.switch_cpus1.rename.serializingInsts        34045                       # count of serializing insts renamed
system.switch_cpus1.rename.tempSerializingInsts        17049                       # count of temporary serializing insts renamed
system.switch_cpus1.rename.skidInsts          2619873                       # count of insts added to the skid buffer
system.switch_cpus1.memDep0.insertedLoads     14081328                       # Number of loads inserted to the mem dependence unit.
system.switch_cpus1.memDep0.insertedStores      7188415                       # Number of stores inserted to the mem dependence unit.
system.switch_cpus1.memDep0.conflictingLoads        69674                       # Number of conflicting loads.
system.switch_cpus1.memDep0.conflictingStores      1639382                       # Number of conflicting stores.
system.switch_cpus1.iq.iqInstsAdded         146401806                       # Number of instructions added to the IQ (excludes non-spec)
system.switch_cpus1.iq.iqNonSpecInstsAdded        34045                       # Number of non-speculative instructions added to the IQ
system.switch_cpus1.iq.iqInstsIssued        137411671                       # Number of instructions issued
system.switch_cpus1.iq.iqSquashedInstsIssued        89374                       # Number of squashed instructions issued
system.switch_cpus1.iq.iqSquashedInstsExamined     21826575                       # Number of squashed instructions iterated over during squash; mainly for profiling
system.switch_cpus1.iq.iqSquashedOperandsExamined     48477030                       # Number of squashed operands that are examined and possibly removed from graph
system.switch_cpus1.iq.iqSquashedNonSpecRemoved           53                       # Number of squashed non-spec instructions that were removed
system.switch_cpus1.iq.issued_per_cycle::samples    139490733                       # Number of insts issued each cycle
system.switch_cpus1.iq.issued_per_cycle::mean     0.985095                       # Number of insts issued each cycle
system.switch_cpus1.iq.issued_per_cycle::stdev     1.546612                       # Number of insts issued each cycle
system.switch_cpus1.iq.issued_per_cycle::underflows            0      0.00%      0.00% # Number of insts issued each cycle
system.switch_cpus1.iq.issued_per_cycle::0     83426829     59.81%     59.81% # Number of insts issued each cycle
system.switch_cpus1.iq.issued_per_cycle::1     21509543     15.42%     75.23% # Number of insts issued each cycle
system.switch_cpus1.iq.issued_per_cycle::2     11588086      8.31%     83.54% # Number of insts issued each cycle
system.switch_cpus1.iq.issued_per_cycle::3      8613041      6.17%     89.71% # Number of insts issued each cycle
system.switch_cpus1.iq.issued_per_cycle::4      8394105      6.02%     95.73% # Number of insts issued each cycle
system.switch_cpus1.iq.issued_per_cycle::5      3116883      2.23%     97.96% # Number of insts issued each cycle
system.switch_cpus1.iq.issued_per_cycle::6      2347698      1.68%     99.65% # Number of insts issued each cycle
system.switch_cpus1.iq.issued_per_cycle::7       316574      0.23%     99.87% # Number of insts issued each cycle
system.switch_cpus1.iq.issued_per_cycle::8       177974      0.13%    100.00% # Number of insts issued each cycle
system.switch_cpus1.iq.issued_per_cycle::overflows            0      0.00%    100.00% # Number of insts issued each cycle
system.switch_cpus1.iq.issued_per_cycle::min_value            0                       # Number of insts issued each cycle
system.switch_cpus1.iq.issued_per_cycle::max_value            8                       # Number of insts issued each cycle
system.switch_cpus1.iq.issued_per_cycle::total    139490733                       # Number of insts issued each cycle
system.switch_cpus1.iq.fu_full::No_OpClass            0      0.00%      0.00% # attempts to use FU when none available
system.switch_cpus1.iq.fu_full::IntAlu         122672     28.06%     28.06% # attempts to use FU when none available
system.switch_cpus1.iq.fu_full::IntMult             0      0.00%     28.06% # attempts to use FU when none available
system.switch_cpus1.iq.fu_full::IntDiv              0      0.00%     28.06% # attempts to use FU when none available
system.switch_cpus1.iq.fu_full::FloatAdd            0      0.00%     28.06% # attempts to use FU when none available
system.switch_cpus1.iq.fu_full::FloatCmp            0      0.00%     28.06% # attempts to use FU when none available
system.switch_cpus1.iq.fu_full::FloatCvt            0      0.00%     28.06% # attempts to use FU when none available
system.switch_cpus1.iq.fu_full::FloatMult            0      0.00%     28.06% # attempts to use FU when none available
system.switch_cpus1.iq.fu_full::FloatDiv            0      0.00%     28.06% # attempts to use FU when none available
system.switch_cpus1.iq.fu_full::FloatSqrt            0      0.00%     28.06% # attempts to use FU when none available
system.switch_cpus1.iq.fu_full::SimdAdd             0      0.00%     28.06% # attempts to use FU when none available
system.switch_cpus1.iq.fu_full::SimdAddAcc            0      0.00%     28.06% # attempts to use FU when none available
system.switch_cpus1.iq.fu_full::SimdAlu             0      0.00%     28.06% # attempts to use FU when none available
system.switch_cpus1.iq.fu_full::SimdCmp             0      0.00%     28.06% # attempts to use FU when none available
system.switch_cpus1.iq.fu_full::SimdCvt             0      0.00%     28.06% # attempts to use FU when none available
system.switch_cpus1.iq.fu_full::SimdMisc            0      0.00%     28.06% # attempts to use FU when none available
system.switch_cpus1.iq.fu_full::SimdMult            0      0.00%     28.06% # attempts to use FU when none available
system.switch_cpus1.iq.fu_full::SimdMultAcc            0      0.00%     28.06% # attempts to use FU when none available
system.switch_cpus1.iq.fu_full::SimdShift            0      0.00%     28.06% # attempts to use FU when none available
system.switch_cpus1.iq.fu_full::SimdShiftAcc            0      0.00%     28.06% # attempts to use FU when none available
system.switch_cpus1.iq.fu_full::SimdSqrt            0      0.00%     28.06% # attempts to use FU when none available
system.switch_cpus1.iq.fu_full::SimdFloatAdd            0      0.00%     28.06% # attempts to use FU when none available
system.switch_cpus1.iq.fu_full::SimdFloatAlu            0      0.00%     28.06% # attempts to use FU when none available
system.switch_cpus1.iq.fu_full::SimdFloatCmp            0      0.00%     28.06% # attempts to use FU when none available
system.switch_cpus1.iq.fu_full::SimdFloatCvt            0      0.00%     28.06% # attempts to use FU when none available
system.switch_cpus1.iq.fu_full::SimdFloatDiv            0      0.00%     28.06% # attempts to use FU when none available
system.switch_cpus1.iq.fu_full::SimdFloatMisc            0      0.00%     28.06% # attempts to use FU when none available
system.switch_cpus1.iq.fu_full::SimdFloatMult            0      0.00%     28.06% # attempts to use FU when none available
system.switch_cpus1.iq.fu_full::SimdFloatMultAcc            0      0.00%     28.06% # attempts to use FU when none available
system.switch_cpus1.iq.fu_full::SimdFloatSqrt            0      0.00%     28.06% # attempts to use FU when none available
system.switch_cpus1.iq.fu_full::MemRead        163686     37.44%     65.50% # attempts to use FU when none available
system.switch_cpus1.iq.fu_full::MemWrite       150856     34.50%    100.00% # attempts to use FU when none available
system.switch_cpus1.iq.fu_full::IprAccess            0      0.00%    100.00% # attempts to use FU when none available
system.switch_cpus1.iq.fu_full::InstPrefetch            0      0.00%    100.00% # attempts to use FU when none available
system.switch_cpus1.iq.FU_type_0::No_OpClass            0      0.00%      0.00% # Type of FU issued
system.switch_cpus1.iq.FU_type_0::IntAlu    115973978     84.40%     84.40% # Type of FU issued
system.switch_cpus1.iq.FU_type_0::IntMult      1860956      1.35%     85.75% # Type of FU issued
system.switch_cpus1.iq.FU_type_0::IntDiv            0      0.00%     85.75% # Type of FU issued
system.switch_cpus1.iq.FU_type_0::FloatAdd            0      0.00%     85.75% # Type of FU issued
system.switch_cpus1.iq.FU_type_0::FloatCmp            0      0.00%     85.75% # Type of FU issued
system.switch_cpus1.iq.FU_type_0::FloatCvt            0      0.00%     85.75% # Type of FU issued
system.switch_cpus1.iq.FU_type_0::FloatMult            0      0.00%     85.75% # Type of FU issued
system.switch_cpus1.iq.FU_type_0::FloatDiv            0      0.00%     85.75% # Type of FU issued
system.switch_cpus1.iq.FU_type_0::FloatSqrt            0      0.00%     85.75% # Type of FU issued
system.switch_cpus1.iq.FU_type_0::SimdAdd            0      0.00%     85.75% # Type of FU issued
system.switch_cpus1.iq.FU_type_0::SimdAddAcc            0      0.00%     85.75% # Type of FU issued
system.switch_cpus1.iq.FU_type_0::SimdAlu            0      0.00%     85.75% # Type of FU issued
system.switch_cpus1.iq.FU_type_0::SimdCmp            0      0.00%     85.75% # Type of FU issued
system.switch_cpus1.iq.FU_type_0::SimdCvt            0      0.00%     85.75% # Type of FU issued
system.switch_cpus1.iq.FU_type_0::SimdMisc            0      0.00%     85.75% # Type of FU issued
system.switch_cpus1.iq.FU_type_0::SimdMult            0      0.00%     85.75% # Type of FU issued
system.switch_cpus1.iq.FU_type_0::SimdMultAcc            0      0.00%     85.75% # Type of FU issued
system.switch_cpus1.iq.FU_type_0::SimdShift            0      0.00%     85.75% # Type of FU issued
system.switch_cpus1.iq.FU_type_0::SimdShiftAcc            0      0.00%     85.75% # Type of FU issued
system.switch_cpus1.iq.FU_type_0::SimdSqrt            0      0.00%     85.75% # Type of FU issued
system.switch_cpus1.iq.FU_type_0::SimdFloatAdd            0      0.00%     85.75% # Type of FU issued
system.switch_cpus1.iq.FU_type_0::SimdFloatAlu            0      0.00%     85.75% # Type of FU issued
system.switch_cpus1.iq.FU_type_0::SimdFloatCmp            0      0.00%     85.75% # Type of FU issued
system.switch_cpus1.iq.FU_type_0::SimdFloatCvt            0      0.00%     85.75% # Type of FU issued
system.switch_cpus1.iq.FU_type_0::SimdFloatDiv            0      0.00%     85.75% # Type of FU issued
system.switch_cpus1.iq.FU_type_0::SimdFloatMisc        16996      0.01%     85.77% # Type of FU issued
system.switch_cpus1.iq.FU_type_0::SimdFloatMult            0      0.00%     85.77% # Type of FU issued
system.switch_cpus1.iq.FU_type_0::SimdFloatMultAcc            0      0.00%     85.77% # Type of FU issued
system.switch_cpus1.iq.FU_type_0::SimdFloatSqrt            0      0.00%     85.77% # Type of FU issued
system.switch_cpus1.iq.FU_type_0::MemRead     12396194      9.02%     94.79% # Type of FU issued
system.switch_cpus1.iq.FU_type_0::MemWrite      7163547      5.21%    100.00% # Type of FU issued
system.switch_cpus1.iq.FU_type_0::IprAccess            0      0.00%    100.00% # Type of FU issued
system.switch_cpus1.iq.FU_type_0::InstPrefetch            0      0.00%    100.00% # Type of FU issued
system.switch_cpus1.iq.FU_type_0::total     137411671                       # Type of FU issued
system.switch_cpus1.iq.rate                  0.981522                       # Inst issue rate
system.switch_cpus1.iq.fu_busy_cnt             437214                       # FU busy when requested
system.switch_cpus1.iq.fu_busy_rate          0.003182                       # FU busy rate (busy events/executed inst)
system.switch_cpus1.iq.int_inst_queue_reads    414840663                       # Number of integer instruction queue reads
system.switch_cpus1.iq.int_inst_queue_writes    168262659                       # Number of integer instruction queue writes
system.switch_cpus1.iq.int_inst_queue_wakeup_accesses    134483616                       # Number of integer instruction queue wakeup accesses
system.switch_cpus1.iq.fp_inst_queue_reads            0                       # Number of floating instruction queue reads
system.switch_cpus1.iq.fp_inst_queue_writes            0                       # Number of floating instruction queue writes
system.switch_cpus1.iq.fp_inst_queue_wakeup_accesses            0                       # Number of floating instruction queue wakeup accesses
system.switch_cpus1.iq.int_alu_accesses     137848885                       # Number of integer alu accesses
system.switch_cpus1.iq.fp_alu_accesses              0                       # Number of floating point alu accesses
system.switch_cpus1.iew.lsq.thread0.forwLoads       282945                       # Number of loads that had data forwarded from stores
system.switch_cpus1.iew.lsq.thread0.invAddrLoads            0                       # Number of loads ignored due to an invalid address
system.switch_cpus1.iew.lsq.thread0.squashedLoads      2964402                       # Number of loads squashed
system.switch_cpus1.iew.lsq.thread0.ignoredResponses            3                       # Number of memory responses ignored because the instruction is squashed
system.switch_cpus1.iew.lsq.thread0.memOrderViolation          233                       # Number of memory ordering violations
system.switch_cpus1.iew.lsq.thread0.squashedStores       118899                       # Number of stores squashed
system.switch_cpus1.iew.lsq.thread0.invAddrSwpfs            0                       # Number of software prefetches ignored due to an invalid address
system.switch_cpus1.iew.lsq.thread0.blockedLoads            0                       # Number of blocked loads due to partial load-store forwarding
system.switch_cpus1.iew.lsq.thread0.rescheduledLoads            0                       # Number of loads that were rescheduled
system.switch_cpus1.iew.lsq.thread0.cacheBlocked            0                       # Number of times an access to memory failed due to the cache being blocked
system.switch_cpus1.iew.iewIdleCycles               0                       # Number of cycles IEW is idle
system.switch_cpus1.iew.iewSquashCycles       3966535                       # Number of cycles IEW is squashing
system.switch_cpus1.iew.iewBlockCycles         399184                       # Number of cycles IEW is blocking
system.switch_cpus1.iew.iewUnblockCycles        53030                       # Number of cycles IEW is unblocking
system.switch_cpus1.iew.iewDispatchedInsts    146435851                       # Number of instructions dispatched to IQ
system.switch_cpus1.iew.iewDispSquashedInsts       758038                       # Number of squashed instructions skipped by dispatch
system.switch_cpus1.iew.iewDispLoadInsts     14081328                       # Number of dispatched load instructions
system.switch_cpus1.iew.iewDispStoreInsts      7188415                       # Number of dispatched store instructions
system.switch_cpus1.iew.iewDispNonSpecInsts        17049                       # Number of dispatched non-speculative instructions
system.switch_cpus1.iew.iewIQFullEvents         42983                       # Number of times the IQ has become full, causing a stall
system.switch_cpus1.iew.iewLSQFullEvents            0                       # Number of times the LSQ has become full, causing a stall
system.switch_cpus1.iew.memOrderViolationEvents          233                       # Number of memory order violations
system.switch_cpus1.iew.predictedTakenIncorrect      1144256                       # Number of branches that were predicted taken incorrectly
system.switch_cpus1.iew.predictedNotTakenIncorrect      1063124                       # Number of branches that were predicted not taken incorrectly
system.switch_cpus1.iew.branchMispredicts      2207380                       # Number of branch mispredicts detected at execute
system.switch_cpus1.iew.iewExecutedInsts    135277663                       # Number of executed instructions
system.switch_cpus1.iew.iewExecLoadInsts     12083820                       # Number of load instructions executed
system.switch_cpus1.iew.iewExecSquashedInsts      2134008                       # Number of squashed instructions skipped in execute
system.switch_cpus1.iew.exec_swp                    0                       # number of swp insts executed
system.switch_cpus1.iew.exec_nop                    0                       # number of nop insts executed
system.switch_cpus1.iew.exec_refs            19247157                       # number of memory reference insts executed
system.switch_cpus1.iew.exec_branches        19147122                       # Number of branches executed
system.switch_cpus1.iew.exec_stores           7163337                       # Number of stores executed
system.switch_cpus1.iew.exec_rate            0.966279                       # Inst execution rate
system.switch_cpus1.iew.wb_sent             134483678                       # cumulative count of insts sent to commit
system.switch_cpus1.iew.wb_count            134483616                       # cumulative count of insts written-back
system.switch_cpus1.iew.wb_producers         79524486                       # num instructions producing a value
system.switch_cpus1.iew.wb_consumers        220311370                       # num instructions consuming a value
system.switch_cpus1.iew.wb_penalized                0                       # number of instrctions required to write to 'other' IQ
system.switch_cpus1.iew.wb_rate              0.960607                       # insts written-back per cycle
system.switch_cpus1.iew.wb_fanout            0.360964                       # average fanout of values written-back
system.switch_cpus1.iew.wb_penalized_rate            0                       # fraction of instructions written-back that wrote to 'other' IQ
system.switch_cpus1.commit.commitCommittedInsts     99470932                       # The number of committed instructions
system.switch_cpus1.commit.commitCommittedOps    122612484                       # The number of committed instructions
system.switch_cpus1.commit.commitSquashedInsts     23823653                       # The number of squashed insts skipped by commit
system.switch_cpus1.commit.commitNonSpecStalls        33992                       # The number of times commit has been forced to stall to communicate backwards
system.switch_cpus1.commit.branchMispredicts      2010152                       # The number of times a branch was mispredicted
system.switch_cpus1.commit.committed_per_cycle::samples    135524198                       # Number of insts commited each cycle
system.switch_cpus1.commit.committed_per_cycle::mean     0.904728                       # Number of insts commited each cycle
system.switch_cpus1.commit.committed_per_cycle::stdev     1.713774                       # Number of insts commited each cycle
system.switch_cpus1.commit.committed_per_cycle::underflows            0      0.00%      0.00% # Number of insts commited each cycle
system.switch_cpus1.commit.committed_per_cycle::0     85937146     63.41%     63.41% # Number of insts commited each cycle
system.switch_cpus1.commit.committed_per_cycle::1     23899898     17.64%     81.05% # Number of insts commited each cycle
system.switch_cpus1.commit.committed_per_cycle::2      9343800      6.89%     87.94% # Number of insts commited each cycle
system.switch_cpus1.commit.committed_per_cycle::3      4919633      3.63%     91.57% # Number of insts commited each cycle
system.switch_cpus1.commit.committed_per_cycle::4      4183280      3.09%     94.66% # Number of insts commited each cycle
system.switch_cpus1.commit.committed_per_cycle::5      2010347      1.48%     96.14% # Number of insts commited each cycle
system.switch_cpus1.commit.committed_per_cycle::6       946069      0.70%     96.84% # Number of insts commited each cycle
system.switch_cpus1.commit.committed_per_cycle::7      1467382      1.08%     97.92% # Number of insts commited each cycle
system.switch_cpus1.commit.committed_per_cycle::8      2816643      2.08%    100.00% # Number of insts commited each cycle
system.switch_cpus1.commit.committed_per_cycle::overflows            0      0.00%    100.00% # Number of insts commited each cycle
system.switch_cpus1.commit.committed_per_cycle::min_value            0                       # Number of insts commited each cycle
system.switch_cpus1.commit.committed_per_cycle::max_value            8                       # Number of insts commited each cycle
system.switch_cpus1.commit.committed_per_cycle::total    135524198                       # Number of insts commited each cycle
system.switch_cpus1.commit.committedInsts     99470932                       # Number of instructions committed
system.switch_cpus1.commit.committedOps     122612484                       # Number of ops (including micro ops) committed
system.switch_cpus1.commit.swp_count                0                       # Number of s/w prefetches committed
system.switch_cpus1.commit.refs              18186442                       # Number of memory references committed
system.switch_cpus1.commit.loads             11116926                       # Number of loads committed
system.switch_cpus1.commit.membars              16996                       # Number of memory barriers committed
system.switch_cpus1.commit.branches          17789858                       # Number of branches committed
system.switch_cpus1.commit.fp_insts                 0                       # Number of committed floating point instructions.
system.switch_cpus1.commit.int_insts        110382793                       # Number of committed integer instructions.
system.switch_cpus1.commit.function_calls      2536017                       # Number of function calls committed.
system.switch_cpus1.commit.bw_lim_events      2816643                       # number cycles where commit BW limit reached
system.switch_cpus1.commit.bw_limited               0                       # number of insts not committed due to BW limits
system.switch_cpus1.rob.rob_reads           279143692                       # The number of ROB reads
system.switch_cpus1.rob.rob_writes          296840502                       # The number of ROB writes
system.switch_cpus1.timesIdled                  23478                       # Number of times that the entire CPU went into an idle state and unscheduled itself
system.switch_cpus1.idleCycles                 507803                       # Total number of cycles that the CPU has spent unscheduled due to idling
system.switch_cpus1.committedInsts           99470932                       # Number of Instructions Simulated
system.switch_cpus1.committedOps            122612484                       # Number of Ops (including micro ops) Simulated
system.switch_cpus1.committedInsts_total     99470932                       # Number of Instructions Simulated
system.switch_cpus1.cpi                      1.407432                       # CPI: Cycles Per Instruction
system.switch_cpus1.cpi_total                1.407432                       # CPI: Total CPI of All Threads
system.switch_cpus1.ipc                      0.710514                       # IPC: Instructions Per Cycle
system.switch_cpus1.ipc_total                0.710514                       # IPC: Total IPC of All Threads
system.switch_cpus1.int_regfile_reads       608329702                       # number of integer regfile reads
system.switch_cpus1.int_regfile_writes      187758332                       # number of integer regfile writes
system.switch_cpus1.misc_regfile_reads      142222154                       # number of misc regfile reads
system.switch_cpus1.misc_regfile_writes         33992                       # number of misc regfile writes
system.l2.replacements                          13932                       # number of replacements
[...]
system.cpu1.icache.ReadReq_miss_latency::total      3074485                       # number of ReadReq miss cycles
system.cpu1.icache.demand_miss_latency::switch_cpus1.inst      3074485                       # number of demand (read+write) miss cycles
system.cpu1.icache.demand_miss_latency::total      3074485                       # number of demand (read+write) miss cycles
system.cpu1.icache.overall_miss_latency::switch_cpus1.inst      3074485                       # number of overall miss cycles
system.cpu1.icache.overall_miss_latency::total      3074485                       # number of overall miss cycles
system.cpu1.icache.ReadReq_accesses::switch_cpus1.inst     12216184                       # number of ReadReq accesses(hits+misses)
system.cpu1.icache.ReadReq_accesses::total     12216184                       # number of ReadReq accesses(hits+misses)
system.cpu1.icache.demand_accesses::switch_cpus1.inst     12216184                       # number of demand (read+write) accesses
system.cpu1.icache.demand_accesses::total     12216184                       # number of demand (read+write) accesses
system.cpu1.icache.overall_accesses::switch_cpus1.inst     12216184                       # number of overall (read+write) accesses
system.cpu1.icache.overall_accesses::total     12216184                       # number of overall (read+write) accesses
system.cpu1.icache.ReadReq_miss_rate::switch_cpus1.inst     0.000001                       # miss rate for ReadReq accesses
system.cpu1.icache.ReadReq_miss_rate::total     0.000001                       # miss rate for ReadReq accesses
system.cpu1.icache.demand_miss_rate::switch_cpus1.inst     0.000001                       # miss rate for demand accesses
system.cpu1.icache.demand_miss_rate::total     0.000001                       # miss rate for demand accesses
system.cpu1.icache.overall_miss_rate::switch_cpus1.inst     0.000001                       # miss rate for overall accesses
system.cpu1.icache.overall_miss_rate::total     0.000001                       # miss rate for overall accesses
system.cpu1.icache.ReadReq_avg_miss_latency::switch_cpus1.inst 170804.722222                       # average ReadReq miss latency
system.cpu1.icache.ReadReq_avg_miss_latency::total 170804.722222                       # average ReadReq miss latency
system.cpu1.icache.demand_avg_miss_latency::switch_cpus1.inst 170804.722222                       # average overall miss latency
system.cpu1.icache.demand_avg_miss_latency::total 170804.722222                       # average overall miss latency
system.cpu1.icache.overall_avg_miss_latency::switch_cpus1.inst 170804.722222                       # average overall miss latency
system.cpu1.icache.overall_avg_miss_latency::total 170804.722222                       # average overall miss latency
system.cpu1.icache.blocked_cycles::no_mshrs            0                       # number of cycles access was blocked
system.cpu1.icache.blocked_cycles::no_targets            0                       # number of cycles access was blocked
system.cpu1.icache.blocked::no_mshrs                0                       # number of cycles access was blocked
system.cpu1.icache.blocked::no_targets              0                       # number of cycles access was blocked
system.cpu1.icache.avg_blocked_cycles::no_mshrs          nan                       # average number of cycles each access was blocked
system.cpu1.icache.avg_blocked_cycles::no_targets          nan                       # average number of cycles each access was blocked
system.cpu1.icache.fast_writes                      0                       # number of fast writes performed
system.cpu1.icache.cache_copies                     0                       # number of cache copies performed
system.cpu1.icache.ReadReq_mshr_hits::switch_cpus1.inst            3                       # number of ReadReq MSHR hits
system.cpu1.icache.ReadReq_mshr_hits::total            3                       # number of ReadReq MSHR hits
system.cpu1.icache.demand_mshr_hits::switch_cpus1.inst            3                       # number of demand (read+write) MSHR hits
system.cpu1.icache.demand_mshr_hits::total            3                       # number of demand (read+write) MSHR hits
system.cpu1.icache.overall_mshr_hits::switch_cpus1.inst            3                       # number of overall MSHR hits
system.cpu1.icache.overall_mshr_hits::total            3                       # number of overall MSHR hits
system.cpu1.icache.ReadReq_mshr_misses::switch_cpus1.inst           15                       # number of ReadReq MSHR misses
system.cpu1.icache.ReadReq_mshr_misses::total           15                       # number of ReadReq MSHR misses
system.cpu1.icache.demand_mshr_misses::switch_cpus1.inst           15                       # number of demand (read+write) MSHR misses
system.cpu1.icache.demand_mshr_misses::total           15                       # number of demand (read+write) MSHR misses
system.cpu1.icache.overall_mshr_misses::switch_cpus1.inst           15                       # number of overall MSHR misses
system.cpu1.icache.overall_mshr_misses::total           15                       # number of overall MSHR misses
system.cpu1.icache.ReadReq_mshr_miss_latency::switch_cpus1.inst      2599031                       # number of ReadReq MSHR miss cycles
system.cpu1.icache.ReadReq_mshr_miss_latency::total      2599031                       # number of ReadReq MSHR miss cycles
system.cpu1.icache.demand_mshr_miss_latency::switch_cpus1.inst      2599031                       # number of demand (read+write) MSHR miss cycles
system.cpu1.icache.demand_mshr_miss_latency::total      2599031                       # number of demand (read+write) MSHR miss cycles
system.cpu1.icache.overall_mshr_miss_latency::switch_cpus1.inst      2599031                       # number of overall MSHR miss cycles
system.cpu1.icache.overall_mshr_miss_latency::total      2599031                       # number of overall MSHR miss cycles
system.cpu1.icache.ReadReq_mshr_miss_rate::switch_cpus1.inst     0.000001                       # mshr miss rate for ReadReq accesses
system.cpu1.icache.ReadReq_mshr_miss_rate::total     0.000001                       # mshr miss rate for ReadReq accesses
system.cpu1.icache.demand_mshr_miss_rate::switch_cpus1.inst     0.000001                       # mshr miss rate for demand accesses
system.cpu1.icache.demand_mshr_miss_rate::total     0.000001                       # mshr miss rate for demand accesses
system.cpu1.icache.overall_mshr_miss_rate::switch_cpus1.inst     0.000001                       # mshr miss rate for overall accesses
system.cpu1.icache.overall_mshr_miss_rate::total     0.000001                       # mshr miss rate for overall accesses
system.cpu1.icache.ReadReq_avg_mshr_miss_latency::switch_cpus1.inst 173268.733333                       # average ReadReq mshr miss latency
system.cpu1.icache.ReadReq_avg_mshr_miss_latency::total 173268.733333                       # average ReadReq mshr miss latency
system.cpu1.icache.demand_avg_mshr_miss_latency::switch_cpus1.inst 173268.733333                       # average overall mshr miss latency
system.cpu1.icache.demand_avg_mshr_miss_latency::total 173268.733333                       # average overall mshr miss latency
system.cpu1.icache.overall_avg_mshr_miss_latency::switch_cpus1.inst 173268.733333                       # average overall mshr miss latency
system.cpu1.icache.overall_avg_mshr_miss_latency::total 173268.733333                       # average overall mshr miss latency
system.cpu1.icache.no_allocate_misses               0                       # Number of misses that were no-allocate
system.cpu1.dcache.replacements                 32840                       # number of replacements
system.cpu1.dcache.tagsinuse                      256                       # Cycle average of tags in use
system.cpu1.dcache.total_refs               162770770                       # Total number of references to valid blocks.
system.cpu1.dcache.sampled_refs                 33096                       # Sample count of references to valid blocks.
system.cpu1.dcache.avg_refs               4918.140259                       # Average number of references to valid blocks.
system.cpu1.dcache.warmup_cycle                     0                       # Cycle when the warmup percentage was hit.
system.cpu1.dcache.occ_blocks::switch_cpus1.data   230.680899                       # Average occupied blocks per requestor
system.cpu1.dcache.occ_blocks::cpu1.data    25.319101                       # Average occupied blocks per requestor
system.cpu1.dcache.occ_percent::switch_cpus1.data     0.901097                       # Average percentage of cache occupancy
system.cpu1.dcache.occ_percent::cpu1.data     0.098903                       # Average percentage of cache occupancy
system.cpu1.dcache.occ_percent::total               1                       # Average percentage of cache occupancy
system.cpu1.dcache.ReadReq_hits::switch_cpus1.data      9010748                       # number of ReadReq hits
system.cpu1.dcache.ReadReq_hits::total        9010748                       # number of ReadReq hits
system.cpu1.dcache.WriteReq_hits::switch_cpus1.data      7035523                       # number of WriteReq hits
system.cpu1.dcache.WriteReq_hits::total       7035523                       # number of WriteReq hits
system.cpu1.dcache.LoadLockedReq_hits::switch_cpus1.data        17031                       # number of LoadLockedReq hits
system.cpu1.dcache.LoadLockedReq_hits::total        17031                       # number of LoadLockedReq hits
system.cpu1.dcache.StoreCondReq_hits::switch_cpus1.data        16996                       # number of StoreCondReq hits
system.cpu1.dcache.StoreCondReq_hits::total        16996                       # number of StoreCondReq hits
system.cpu1.dcache.demand_hits::switch_cpus1.data     16046271                       # number of demand (read+write) hits
system.cpu1.dcache.demand_hits::total        16046271                       # number of demand (read+write) hits
system.cpu1.dcache.overall_hits::switch_cpus1.data     16046271                       # number of overall hits
system.cpu1.dcache.overall_hits::total       16046271                       # number of overall hits
system.cpu1.dcache.ReadReq_misses::switch_cpus1.data        83763                       # number of ReadReq misses
system.cpu1.dcache.ReadReq_misses::total        83763                       # number of ReadReq misses
system.cpu1.dcache.demand_misses::switch_cpus1.data        83763                       # number of demand (read+write) misses
system.cpu1.dcache.demand_misses::total         83763                       # number of demand (read+write) misses
system.cpu1.dcache.overall_misses::switch_cpus1.data        83763                       # number of overall misses
system.cpu1.dcache.overall_misses::total        83763                       # number of overall misses
system.cpu1.dcache.ReadReq_miss_latency::switch_cpus1.data   8407239837                       # number of ReadReq miss cycles
system.cpu1.dcache.ReadReq_miss_latency::total   8407239837                       # number of ReadReq miss cycles
system.cpu1.dcache.demand_miss_latency::switch_cpus1.data   8407239837                       # number of demand (read+write) miss cycles
system.cpu1.dcache.demand_miss_latency::total   8407239837                       # number of demand (read+write) miss cycles
system.cpu1.dcache.overall_miss_latency::switch_cpus1.data   8407239837                       # number of overall miss cycles
system.cpu1.dcache.overall_miss_latency::total   8407239837                       # number of overall miss cycles
system.cpu1.dcache.ReadReq_accesses::switch_cpus1.data      9094511                       # number of ReadReq accesses(hits+misses)
system.cpu1.dcache.ReadReq_accesses::total      9094511                       # number of ReadReq accesses(hits+misses)
system.cpu1.dcache.WriteReq_accesses::switch_cpus1.data      7035523                       # number of WriteReq accesses(hits+misses)
system.cpu1.dcache.WriteReq_accesses::total      7035523                       # number of WriteReq accesses(hits+misses)
system.cpu1.dcache.LoadLockedReq_accesses::switch_cpus1.data        17031                       # number of LoadLockedReq accesses(hits+misses)
system.cpu1.dcache.LoadLockedReq_accesses::total        17031                       # number of LoadLockedReq accesses(hits+misses)
system.cpu1.dcache.StoreCondReq_accesses::switch_cpus1.data        16996                       # number of StoreCondReq accesses(hits+misses)
system.cpu1.dcache.StoreCondReq_accesses::total        16996                       # number of StoreCondReq accesses(hits+misses)
system.cpu1.dcache.demand_accesses::switch_cpus1.data     16130034                       # number of demand (read+write) accesses
system.cpu1.dcache.demand_accesses::total     16130034                       # number of demand (read+write) accesses
system.cpu1.dcache.overall_accesses::switch_cpus1.data     16130034                       # number of overall (read+write) accesses
system.cpu1.dcache.overall_accesses::total     16130034                       # number of overall (read+write) accesses
system.cpu1.dcache.ReadReq_miss_rate::switch_cpus1.data     0.009210                       # miss rate for ReadReq accesses
system.cpu1.dcache.ReadReq_miss_rate::total     0.009210                       # miss rate for ReadReq accesses
system.cpu1.dcache.demand_miss_rate::switch_cpus1.data     0.005193                       # miss rate for demand accesses
system.cpu1.dcache.demand_miss_rate::total     0.005193                       # miss rate for demand accesses
system.cpu1.dcache.overall_miss_rate::switch_cpus1.data     0.005193                       # miss rate for overall accesses
system.cpu1.dcache.overall_miss_rate::total     0.005193                       # miss rate for overall accesses
system.cpu1.dcache.ReadReq_avg_miss_latency::switch_cpus1.data 100369.373554                       # average ReadReq miss latency
system.cpu1.dcache.ReadReq_avg_miss_latency::total 100369.373554                       # average ReadReq miss latency
system.cpu1.dcache.demand_avg_miss_latency::switch_cpus1.data 100369.373554                       # average overall miss latency
system.cpu1.dcache.demand_avg_miss_latency::total 100369.373554                       # average overall miss latency
system.cpu1.dcache.overall_avg_miss_latency::switch_cpus1.data 100369.373554                       # average overall miss latency
system.cpu1.dcache.overall_avg_miss_latency::total 100369.373554                       # average overall miss latency
system.cpu1.dcache.blocked_cycles::no_mshrs            0                       # number of cycles access was blocked
system.cpu1.dcache.blocked_cycles::no_targets            0                       # number of cycles access was blocked
system.cpu1.dcache.blocked::no_mshrs                0                       # number of cycles access was blocked
system.cpu1.dcache.blocked::no_targets              0                       # number of cycles access was blocked
system.cpu1.dcache.avg_blocked_cycles::no_mshrs          nan                       # average number of cycles each access was blocked
system.cpu1.dcache.avg_blocked_cycles::no_targets          nan                       # average number of cycles each access was blocked
system.cpu1.dcache.fast_writes                      0                       # number of fast writes performed
system.cpu1.dcache.cache_copies                     0                       # number of cache copies performed
system.cpu1.dcache.writebacks::writebacks         8747                       # number of writebacks
system.cpu1.dcache.writebacks::total             8747                       # number of writebacks
system.cpu1.dcache.ReadReq_mshr_hits::switch_cpus1.data        50923                       # number of ReadReq MSHR hits
system.cpu1.dcache.ReadReq_mshr_hits::total        50923                       # number of ReadReq MSHR hits
system.cpu1.dcache.demand_mshr_hits::switch_cpus1.data        50923                       # number of demand (read+write) MSHR hits
system.cpu1.dcache.demand_mshr_hits::total        50923                       # number of demand (read+write) MSHR hits
system.cpu1.dcache.overall_mshr_hits::switch_cpus1.data        50923                       # number of overall MSHR hits
system.cpu1.dcache.overall_mshr_hits::total        50923                       # number of overall MSHR hits
system.cpu1.dcache.ReadReq_mshr_misses::switch_cpus1.data        32840                       # number of ReadReq MSHR misses
system.cpu1.dcache.ReadReq_mshr_misses::total        32840                       # number of ReadReq MSHR misses
system.cpu1.dcache.demand_mshr_misses::switch_cpus1.data        32840                       # number of demand (read+write) MSHR misses
system.cpu1.dcache.demand_mshr_misses::total        32840                       # number of demand (read+write) MSHR misses
system.cpu1.dcache.overall_mshr_misses::switch_cpus1.data        32840                       # number of overall MSHR misses
system.cpu1.dcache.overall_mshr_misses::total        32840                       # number of overall MSHR misses
system.cpu1.dcache.ReadReq_mshr_miss_latency::switch_cpus1.data   3100164478                       # number of ReadReq MSHR miss cycles
system.cpu1.dcache.ReadReq_mshr_miss_latency::total   3100164478                       # number of ReadReq MSHR miss cycles
system.cpu1.dcache.demand_mshr_miss_latency::switch_cpus1.data   3100164478                       # number of demand (read+write) MSHR miss cycles
system.cpu1.dcache.demand_mshr_miss_latency::total   3100164478                       # number of demand (read+write) MSHR miss cycles
system.cpu1.dcache.overall_mshr_miss_latency::switch_cpus1.data   3100164478                       # number of overall MSHR miss cycles
system.cpu1.dcache.overall_mshr_miss_latency::total   3100164478                       # number of overall MSHR miss cycles
system.cpu1.dcache.ReadReq_mshr_miss_rate::switch_cpus1.data     0.003611                       # mshr miss rate for ReadReq accesses
system.cpu1.dcache.ReadReq_mshr_miss_rate::total     0.003611                       # mshr miss rate for ReadReq accesses
system.cpu1.dcache.demand_mshr_miss_rate::switch_cpus1.data     0.002036                       # mshr miss rate for demand accesses
system.cpu1.dcache.demand_mshr_miss_rate::total     0.002036                       # mshr miss rate for demand accesses
system.cpu1.dcache.overall_mshr_miss_rate::switch_cpus1.data     0.002036                       # mshr miss rate for overall accesses
system.cpu1.dcache.overall_mshr_miss_rate::total     0.002036                       # mshr miss rate for overall accesses
system.cpu1.dcache.ReadReq_avg_mshr_miss_latency::switch_cpus1.data 94402.085201                       # average ReadReq mshr miss latency
system.cpu1.dcache.ReadReq_avg_mshr_miss_latency::total 94402.085201                       # average ReadReq mshr miss latency
system.cpu1.dcache.demand_avg_mshr_miss_latency::switch_cpus1.data 94402.085201                       # average overall mshr miss latency
system.cpu1.dcache.demand_avg_mshr_miss_latency::total 94402.085201                       # average overall mshr miss latency
system.cpu1.dcache.overall_avg_mshr_miss_latency::switch_cpus1.data 94402.085201                       # average overall mshr miss latency
system.cpu1.dcache.overall_avg_mshr_miss_latency::total 94402.085201                       # average overall mshr miss latency
system.cpu1.dcache.no_allocate_misses               0                       # Number of misses that were no-allocate

---------- End Simulation Statistics   ----------
