
---------- Begin Simulation Statistics ----------
sim_seconds                                  0.001033                       # Number of seconds simulated
sim_ticks                                  1032505761                       # Number of ticks simulated
final_tick                               398760857016                       # Number of ticks from beginning of simulation (restored from checkpoints and never reset)
sim_freq                                 1000000000000                       # Frequency of simulated ticks
host_inst_rate                                 300162                       # Simulator instruction rate (inst/s)
host_op_rate                                   395313                       # Simulator op (including micro ops) rate (op/s)
host_tick_rate                                  26714                       # Simulator tick rate (ticks/s)
host_mem_usage                               67618532                       # Number of bytes of host memory used
host_seconds                                 38649.67                       # Real time elapsed on the host
sim_insts                                 11601166146                       # Number of instructions simulated
sim_ops                                   15278709030                       # Number of ops (including micro ops) simulated
system.physmem.bytes_read::switch_cpus00.inst         3456                       # Number of bytes read from this memory
system.physmem.bytes_read::switch_cpus00.data        14336                       # Number of bytes read from this memory
system.physmem.bytes_read::switch_cpus01.inst         1664                       # Number of bytes read from this memory
system.physmem.bytes_read::switch_cpus01.data        71168                       # Number of bytes read from this memory
system.physmem.bytes_read::switch_cpus02.inst         1920                       # Number of bytes read from this memory
system.physmem.bytes_read::switch_cpus02.data        20992                       # Number of bytes read from this memory
system.physmem.bytes_read::switch_cpus03.inst         1664                       # Number of bytes read from this memory
system.physmem.bytes_read::switch_cpus03.data        25088                       # Number of bytes read from this memory
system.physmem.bytes_read::switch_cpus04.inst         1664                       # Number of bytes read from this memory
system.physmem.bytes_read::switch_cpus04.data        24192                       # Number of bytes read from this memory
system.physmem.bytes_read::switch_cpus05.inst         3328                       # Number of bytes read from this memory
system.physmem.bytes_read::switch_cpus05.data        12928                       # Number of bytes read from this memory
system.physmem.bytes_read::switch_cpus06.inst         3456                       # Number of bytes read from this memory
system.physmem.bytes_read::switch_cpus06.data        17664                       # Number of bytes read from this memory
system.physmem.bytes_read::switch_cpus07.inst         3456                       # Number of bytes read from this memory
system.physmem.bytes_read::switch_cpus07.data        14080                       # Number of bytes read from this memory
system.physmem.bytes_read::switch_cpus08.inst         1664                       # Number of bytes read from this memory
system.physmem.bytes_read::switch_cpus08.data        24320                       # Number of bytes read from this memory
system.physmem.bytes_read::switch_cpus09.inst         1920                       # Number of bytes read from this memory
system.physmem.bytes_read::switch_cpus09.data        19840                       # Number of bytes read from this memory
system.physmem.bytes_read::switch_cpus10.inst         1792                       # Number of bytes read from this memory
system.physmem.bytes_read::switch_cpus10.data        47232                       # Number of bytes read from this memory
system.physmem.bytes_read::switch_cpus11.inst         1920                       # Number of bytes read from this memory
system.physmem.bytes_read::switch_cpus11.data        20864                       # Number of bytes read from this memory
system.physmem.bytes_read::switch_cpus12.inst         1792                       # Number of bytes read from this memory
system.physmem.bytes_read::switch_cpus12.data        47616                       # Number of bytes read from this memory
system.physmem.bytes_read::switch_cpus13.inst         1920                       # Number of bytes read from this memory
system.physmem.bytes_read::switch_cpus13.data        18048                       # Number of bytes read from this memory
system.physmem.bytes_read::switch_cpus14.inst         1664                       # Number of bytes read from this memory
system.physmem.bytes_read::switch_cpus14.data        23424                       # Number of bytes read from this memory
system.physmem.bytes_read::switch_cpus15.inst         3456                       # Number of bytes read from this memory
system.physmem.bytes_read::switch_cpus15.data        17280                       # Number of bytes read from this memory
system.physmem.bytes_read::total               455808                       # Number of bytes read from this memory
system.physmem.bytes_inst_read::switch_cpus00.inst         3456                       # Number of instructions bytes read from this memory
system.physmem.bytes_inst_read::switch_cpus01.inst         1664                       # Number of instructions bytes read from this memory
system.physmem.bytes_inst_read::switch_cpus02.inst         1920                       # Number of instructions bytes read from this memory
system.physmem.bytes_inst_read::switch_cpus03.inst         1664                       # Number of instructions bytes read from this memory
system.physmem.bytes_inst_read::switch_cpus04.inst         1664                       # Number of instructions bytes read from this memory
system.physmem.bytes_inst_read::switch_cpus05.inst         3328                       # Number of instructions bytes read from this memory
system.physmem.bytes_inst_read::switch_cpus06.inst         3456                       # Number of instructions bytes read from this memory
system.physmem.bytes_inst_read::switch_cpus07.inst         3456                       # Number of instructions bytes read from this memory
system.physmem.bytes_inst_read::switch_cpus08.inst         1664                       # Number of instructions bytes read from this memory
system.physmem.bytes_inst_read::switch_cpus09.inst         1920                       # Number of instructions bytes read from this memory
system.physmem.bytes_inst_read::switch_cpus10.inst         1792                       # Number of instructions bytes read from this memory
system.physmem.bytes_inst_read::switch_cpus11.inst         1920                       # Number of instructions bytes read from this memory
system.physmem.bytes_inst_read::switch_cpus12.inst         1792                       # Number of instructions bytes read from this memory
system.physmem.bytes_inst_read::switch_cpus13.inst         1920                       # Number of instructions bytes read from this memory
system.physmem.bytes_inst_read::switch_cpus14.inst         1664                       # Number of instructions bytes read from this memory
system.physmem.bytes_inst_read::switch_cpus15.inst         3456                       # Number of instructions bytes read from this memory
system.physmem.bytes_inst_read::total           36736                       # Number of instructions bytes read from this memory
system.physmem.bytes_written::writebacks       170624                       # Number of bytes written to this memory
system.physmem.bytes_written::total            170624                       # Number of bytes written to this memory
system.physmem.num_reads::switch_cpus00.inst           27                       # Number of read requests responded to by this memory
system.physmem.num_reads::switch_cpus00.data          112                       # Number of read requests responded to by this memory
system.physmem.num_reads::switch_cpus01.inst           13                       # Number of read requests responded to by this memory
system.physmem.num_reads::switch_cpus01.data          556                       # Number of read requests responded to by this memory
system.physmem.num_reads::switch_cpus02.inst           15                       # Number of read requests responded to by this memory
system.physmem.num_reads::switch_cpus02.data          164                       # Number of read requests responded to by this memory
system.physmem.num_reads::switch_cpus03.inst           13                       # Number of read requests responded to by this memory
system.physmem.num_reads::switch_cpus03.data          196                       # Number of read requests responded to by this memory
system.physmem.num_reads::switch_cpus04.inst           13                       # Number of read requests responded to by this memory
system.physmem.num_reads::switch_cpus04.data          189                       # Number of read requests responded to by this memory
system.physmem.num_reads::switch_cpus05.inst           26                       # Number of read requests responded to by this memory
system.physmem.num_reads::switch_cpus05.data          101                       # Number of read requests responded to by this memory
system.physmem.num_reads::switch_cpus06.inst           27                       # Number of read requests responded to by this memory
system.physmem.num_reads::switch_cpus06.data          138                       # Number of read requests responded to by this memory
system.physmem.num_reads::switch_cpus07.inst           27                       # Number of read requests responded to by this memory
system.physmem.num_reads::switch_cpus07.data          110                       # Number of read requests responded to by this memory
system.physmem.num_reads::switch_cpus08.inst           13                       # Number of read requests responded to by this memory
system.physmem.num_reads::switch_cpus08.data          190                       # Number of read requests responded to by this memory
system.physmem.num_reads::switch_cpus09.inst           15                       # Number of read requests responded to by this memory
system.physmem.num_reads::switch_cpus09.data          155                       # Number of read requests responded to by this memory
system.physmem.num_reads::switch_cpus10.inst           14                       # Number of read requests responded to by this memory
system.physmem.num_reads::switch_cpus10.data          369                       # Number of read requests responded to by this memory
system.physmem.num_reads::switch_cpus11.inst           15                       # Number of read requests responded to by this memory
system.physmem.num_reads::switch_cpus11.data          163                       # Number of read requests responded to by this memory
system.physmem.num_reads::switch_cpus12.inst           14                       # Number of read requests responded to by this memory
system.physmem.num_reads::switch_cpus12.data          372                       # Number of read requests responded to by this memory
system.physmem.num_reads::switch_cpus13.inst           15                       # Number of read requests responded to by this memory
system.physmem.num_reads::switch_cpus13.data          141                       # Number of read requests responded to by this memory
system.physmem.num_reads::switch_cpus14.inst           13                       # Number of read requests responded to by this memory
system.physmem.num_reads::switch_cpus14.data          183                       # Number of read requests responded to by this memory
system.physmem.num_reads::switch_cpus15.inst           27                       # Number of read requests responded to by this memory
system.physmem.num_reads::switch_cpus15.data          135                       # Number of read requests responded to by this memory
system.physmem.num_reads::total                  3561                       # Number of read requests responded to by this memory
system.physmem.num_writes::writebacks            1333                       # Number of write requests responded to by this memory
system.physmem.num_writes::functional               0                       # Number of write requests responded to by this memory
system.physmem.num_writes::interrupt                0                       # Number of write requests responded to by this memory
system.physmem.num_writes::switch_cpus00.dtb.walker            0                       # Number of write requests responded to by this memory
system.physmem.num_writes::switch_cpus00.itb.walker            0                       # Number of write requests responded to by this memory
system.physmem.num_writes::switch_cpus00.inst            0                       # Number of write requests responded to by this memory
system.physmem.num_writes::switch_cpus00.data            0                       # Number of write requests responded to by this memory
system.physmem.num_writes::switch_cpus01.dtb.walker            0                       # Number of write requests responded to by this memory
system.physmem.num_writes::switch_cpus01.itb.walker            0                       # Number of write requests responded to by this memory
system.physmem.num_writes::switch_cpus01.inst            0                       # Number of write requests responded to by this memory
system.physmem.num_writes::switch_cpus01.data            0                       # Number of write requests responded to by this memory
system.physmem.num_writes::switch_cpus02.dtb.walker            0                       # Number of write requests responded to by this memory
system.physmem.num_writes::switch_cpus02.itb.walker            0                       # Number of write requests responded to by this memory
system.physmem.num_writes::switch_cpus02.inst            0                       # Number of write requests responded to by this memory
system.physmem.num_writes::switch_cpus02.data            0                       # Number of write requests responded to by this memory
system.physmem.num_writes::switch_cpus03.dtb.walker            0                       # Number of write requests responded to by this memory
system.physmem.num_writes::switch_cpus03.itb.walker            0                       # Number of write requests responded to by this memory
system.physmem.num_writes::switch_cpus03.inst            0                       # Number of write requests responded to by this memory
system.physmem.num_writes::switch_cpus03.data            0                       # Number of write requests responded to by this memory
system.physmem.num_writes::switch_cpus04.dtb.walker            0                       # Number of write requests responded to by this memory
system.physmem.num_writes::switch_cpus04.itb.walker            0                       # Number of write requests responded to by this memory
system.physmem.num_writes::switch_cpus04.inst            0                       # Number of write requests responded to by this memory
system.physmem.num_writes::switch_cpus04.data            0                       # Number of write requests responded to by this memory
system.physmem.num_writes::switch_cpus05.dtb.walker            0                       # Number of write requests responded to by this memory
system.physmem.num_writes::switch_cpus05.itb.walker            0                       # Number of write requests responded to by this memory
system.physmem.num_writes::switch_cpus05.inst            0                       # Number of write requests responded to by this memory
system.physmem.num_writes::switch_cpus05.data            0                       # Number of write requests responded to by this memory
system.physmem.num_writes::switch_cpus06.dtb.walker            0                       # Number of write requests responded to by this memory
system.physmem.num_writes::switch_cpus06.itb.walker            0                       # Number of write requests responded to by this memory
system.physmem.num_writes::switch_cpus06.inst            0                       # Number of write requests responded to by this memory
system.physmem.num_writes::switch_cpus06.data            0                       # Number of write requests responded to by this memory
system.physmem.num_writes::switch_cpus07.dtb.walker            0                       # Number of write requests responded to by this memory
system.physmem.num_writes::switch_cpus07.itb.walker            0                       # Number of write requests responded to by this memory
system.physmem.num_writes::switch_cpus07.inst            0                       # Number of write requests responded to by this memory
system.physmem.num_writes::switch_cpus07.data            0                       # Number of write requests responded to by this memory
system.physmem.num_writes::switch_cpus08.dtb.walker            0                       # Number of write requests responded to by this memory
system.physmem.num_writes::switch_cpus08.itb.walker            0                       # Number of write requests responded to by this memory
system.physmem.num_writes::switch_cpus08.inst            0                       # Number of write requests responded to by this memory
system.physmem.num_writes::switch_cpus08.data            0                       # Number of write requests responded to by this memory
system.physmem.num_writes::switch_cpus09.dtb.walker            0                       # Number of write requests responded to by this memory
system.physmem.num_writes::switch_cpus09.itb.walker            0                       # Number of write requests responded to by this memory
system.physmem.num_writes::switch_cpus09.inst            0                       # Number of write requests responded to by this memory
system.physmem.num_writes::switch_cpus09.data            0                       # Number of write requests responded to by this memory
system.physmem.num_writes::switch_cpus10.dtb.walker            0                       # Number of write requests responded to by this memory
system.physmem.num_writes::switch_cpus10.itb.walker            0                       # Number of write requests responded to by this memory
system.physmem.num_writes::switch_cpus10.inst            0                       # Number of write requests responded to by this memory
system.physmem.num_writes::switch_cpus10.data            0                       # Number of write requests responded to by this memory
system.physmem.num_writes::switch_cpus11.dtb.walker            0                       # Number of write requests responded to by this memory
system.physmem.num_writes::switch_cpus11.itb.walker            0                       # Number of write requests responded to by this memory
system.physmem.num_writes::switch_cpus11.inst            0                       # Number of write requests responded to by this memory
system.physmem.num_writes::switch_cpus11.data            0                       # Number of write requests responded to by this memory
system.physmem.num_writes::switch_cpus12.dtb.walker            0                       # Number of write requests responded to by this memory
system.physmem.num_writes::switch_cpus12.itb.walker            0                       # Number of write requests responded to by this memory
system.physmem.num_writes::switch_cpus12.inst            0                       # Number of write requests responded to by this memory
system.physmem.num_writes::switch_cpus12.data            0                       # Number of write requests responded to by this memory
system.physmem.num_writes::switch_cpus13.dtb.walker            0                       # Number of write requests responded to by this memory
system.physmem.num_writes::switch_cpus13.itb.walker            0                       # Number of write requests responded to by this memory
system.physmem.num_writes::switch_cpus13.inst            0                       # Number of write requests responded to by this memory
system.physmem.num_writes::switch_cpus13.data            0                       # Number of write requests responded to by this memory
system.physmem.num_writes::switch_cpus14.dtb.walker            0                       # Number of write requests responded to by this memory
system.physmem.num_writes::switch_cpus14.itb.walker            0                       # Number of write requests responded to by this memory
system.physmem.num_writes::switch_cpus14.inst            0                       # Number of write requests responded to by this memory
system.physmem.num_writes::switch_cpus14.data            0                       # Number of write requests responded to by this memory
system.physmem.num_writes::switch_cpus15.dtb.walker            0                       # Number of write requests responded to by this memory
system.physmem.num_writes::switch_cpus15.itb.walker            0                       # Number of write requests responded to by this memory
system.physmem.num_writes::switch_cpus15.inst            0                       # Number of write requests responded to by this memory
system.physmem.num_writes::switch_cpus15.data            0                       # Number of write requests responded to by this memory
system.physmem.num_writes::cpu00.dtb.walker            0                       # Number of write requests responded to by this memory
system.physmem.num_writes::cpu00.itb.walker            0                       # Number of write requests responded to by this memory
system.physmem.num_writes::cpu00.inst               0                       # Number of write requests responded to by this memory
system.physmem.num_writes::cpu00.data               0                       # Number of write requests responded to by this memory
system.physmem.num_writes::cpu01.dtb.walker            0                       # Number of write requests responded to by this memory
system.physmem.num_writes::cpu01.itb.walker            0                       # Number of write requests responded to by this memory
system.physmem.num_writes::cpu01.inst               0                       # Number of write requests responded to by this memory
system.physmem.num_writes::cpu01.data               0                       # Number of write requests responded to by this memory
system.physmem.num_writes::cpu02.dtb.walker            0                       # Number of write requests responded to by this memory
system.physmem.num_writes::cpu02.itb.walker            0                       # Number of write requests responded to by this memory
system.physmem.num_writes::cpu02.inst               0                       # Number of write requests responded to by this memory
system.physmem.num_writes::cpu02.data               0                       # Number of write requests responded to by this memory
system.physmem.num_writes::cpu03.dtb.walker            0                       # Number of write requests responded to by this memory
system.physmem.num_writes::cpu03.itb.walker            0                       # Number of write requests responded to by this memory
system.physmem.num_writes::cpu03.inst               0                       # Number of write requests responded to by this memory
system.physmem.num_writes::cpu03.data               0                       # Number of write requests responded to by this memory
system.physmem.num_writes::cpu04.dtb.walker            0                       # Number of write requests responded to by this memory
system.physmem.num_writes::cpu04.itb.walker            0                       # Number of write requests responded to by this memory
system.physmem.num_writes::cpu04.inst               0                       # Number of write requests responded to by this memory
system.physmem.num_writes::cpu04.data               0                       # Number of write requests responded to by this memory
system.physmem.num_writes::cpu05.dtb.walker            0                       # Number of write requests responded to by this memory
system.physmem.num_writes::cpu05.itb.walker            0                       # Number of write requests responded to by this memory
system.physmem.num_writes::cpu05.inst               0                       # Number of write requests responded to by this memory
system.physmem.num_writes::cpu05.data               0                       # Number of write requests responded to by this memory
system.physmem.num_writes::cpu06.dtb.walker            0                       # Number of write requests responded to by this memory
system.physmem.num_writes::cpu06.itb.walker            0                       # Number of write requests responded to by this memory
system.physmem.num_writes::cpu06.inst               0                       # Number of write requests responded to by this memory
system.physmem.num_writes::cpu06.data               0                       # Number of write requests responded to by this memory
system.physmem.num_writes::cpu07.dtb.walker            0                       # Number of write requests responded to by this memory
system.physmem.num_writes::cpu07.itb.walker            0                       # Number of write requests responded to by this memory
system.physmem.num_writes::cpu07.inst               0                       # Number of write requests responded to by this memory
system.physmem.num_writes::cpu07.data               0                       # Number of write requests responded to by this memory
system.physmem.num_writes::cpu08.dtb.walker            0                       # Number of write requests responded to by this memory
system.physmem.num_writes::cpu08.itb.walker            0                       # Number of write requests responded to by this memory
system.physmem.num_writes::cpu08.inst               0                       # Number of write requests responded to by this memory
system.physmem.num_writes::cpu08.data               0                       # Number of write requests responded to by this memory
system.physmem.num_writes::cpu09.dtb.walker            0                       # Number of write requests responded to by this memory
system.physmem.num_writes::cpu09.itb.walker            0                       # Number of write requests responded to by this memory
system.physmem.num_writes::cpu09.inst               0                       # Number of write requests responded to by this memory
system.physmem.num_writes::cpu09.data               0                       # Number of write requests responded to by this memory
system.physmem.num_writes::cpu10.dtb.walker            0                       # Number of write requests responded to by this memory
system.physmem.num_writes::cpu10.itb.walker            0                       # Number of write requests responded to by this memory
system.physmem.num_writes::cpu10.inst               0                       # Number of write requests responded to by this memory
system.physmem.num_writes::cpu10.data               0                       # Number of write requests responded to by this memory
system.physmem.num_writes::cpu11.dtb.walker            0                       # Number of write requests responded to by this memory
system.physmem.num_writes::cpu11.itb.walker            0                       # Number of write requests responded to by this memory
system.physmem.num_writes::cpu11.inst               0                       # Number of write requests responded to by this memory
system.physmem.num_writes::cpu11.data               0                       # Number of write requests responded to by this memory
system.physmem.num_writes::cpu12.dtb.walker            0                       # Number of write requests responded to by this memory
system.physmem.num_writes::cpu12.itb.walker            0                       # Number of write requests responded to by this memory
system.physmem.num_writes::cpu12.inst               0                       # Number of write requests responded to by this memory
system.physmem.num_writes::cpu12.data               0                       # Number of write requests responded to by this memory
system.physmem.num_writes::cpu13.dtb.walker            0                       # Number of write requests responded to by this memory
system.physmem.num_writes::cpu13.itb.walker            0                       # Number of write requests responded to by this memory
system.physmem.num_writes::cpu13.inst               0                       # Number of write requests responded to by this memory
system.physmem.num_writes::cpu13.data               0                       # Number of write requests responded to by this memory
system.physmem.num_writes::cpu14.dtb.walker            0                       # Number of write requests responded to by this memory
system.physmem.num_writes::cpu14.itb.walker            0                       # Number of write requests responded to by this memory
system.physmem.num_writes::cpu14.inst               0                       # Number of write requests responded to by this memory
system.physmem.num_writes::cpu14.data               0                       # Number of write requests responded to by this memory
system.physmem.num_writes::cpu15.dtb.walker            0                       # Number of write requests responded to by this memory
system.physmem.num_writes::cpu15.itb.walker            0                       # Number of write requests responded to by this memory
system.physmem.num_writes::cpu15.inst               0                       # Number of write requests responded to by this memory
system.physmem.num_writes::cpu15.data               0                       # Number of write requests responded to by this memory
system.physmem.num_writes::total                 1333                       # Number of write requests responded to by this memory
system.physmem.bw_read::switch_cpus00.inst      3347197                       # Total read bandwidth from this memory (bytes/s)
system.physmem.bw_read::switch_cpus00.data     13884668                       # Total read bandwidth from this memory (bytes/s)
system.physmem.bw_read::switch_cpus01.inst      1611613                       # Total read bandwidth from this memory (bytes/s)
system.physmem.bw_read::switch_cpus01.data     68927460                       # Total read bandwidth from this memory (bytes/s)
system.physmem.bw_read::switch_cpus02.inst      1859554                       # Total read bandwidth from this memory (bytes/s)
system.physmem.bw_read::switch_cpus02.data     20331121                       # Total read bandwidth from this memory (bytes/s)
system.physmem.bw_read::switch_cpus03.inst      1611613                       # Total read bandwidth from this memory (bytes/s)
system.physmem.bw_read::switch_cpus03.data     24298170                       # Total read bandwidth from this memory (bytes/s)
system.physmem.bw_read::switch_cpus04.inst      1611613                       # Total read bandwidth from this memory (bytes/s)
system.physmem.bw_read::switch_cpus04.data     23430378                       # Total read bandwidth from this memory (bytes/s)
system.physmem.bw_read::switch_cpus05.inst      3223227                       # Total read bandwidth from this memory (bytes/s)
system.physmem.bw_read::switch_cpus05.data     12520996                       # Total read bandwidth from this memory (bytes/s)
system.physmem.bw_read::switch_cpus06.inst      3347197                       # Total read bandwidth from this memory (bytes/s)
system.physmem.bw_read::switch_cpus06.data     17107895                       # Total read bandwidth from this memory (bytes/s)
system.physmem.bw_read::switch_cpus07.inst      3347197                       # Total read bandwidth from this memory (bytes/s)
system.physmem.bw_read::switch_cpus07.data     13636728                       # Total read bandwidth from this memory (bytes/s)
system.physmem.bw_read::switch_cpus08.inst      1611613                       # Total read bandwidth from this memory (bytes/s)
system.physmem.bw_read::switch_cpus08.data     23554348                       # Total read bandwidth from this memory (bytes/s)
system.physmem.bw_read::switch_cpus09.inst      1859554                       # Total read bandwidth from this memory (bytes/s)
system.physmem.bw_read::switch_cpus09.data     19215389                       # Total read bandwidth from this memory (bytes/s)
system.physmem.bw_read::switch_cpus10.inst      1735584                       # Total read bandwidth from this memory (bytes/s)
system.physmem.bw_read::switch_cpus10.data     45745023                       # Total read bandwidth from this memory (bytes/s)
system.physmem.bw_read::switch_cpus11.inst      1859554                       # Total read bandwidth from this memory (bytes/s)
system.physmem.bw_read::switch_cpus11.data     20207151                       # Total read bandwidth from this memory (bytes/s)
system.physmem.bw_read::switch_cpus12.inst      1735584                       # Total read bandwidth from this memory (bytes/s)
system.physmem.bw_read::switch_cpus12.data     46116934                       # Total read bandwidth from this memory (bytes/s)
system.physmem.bw_read::switch_cpus13.inst      1859554                       # Total read bandwidth from this memory (bytes/s)
system.physmem.bw_read::switch_cpus13.data     17479806                       # Total read bandwidth from this memory (bytes/s)
system.physmem.bw_read::switch_cpus14.inst      1611613                       # Total read bandwidth from this memory (bytes/s)
system.physmem.bw_read::switch_cpus14.data     22686556                       # Total read bandwidth from this memory (bytes/s)
system.physmem.bw_read::switch_cpus15.inst      3347197                       # Total read bandwidth from this memory (bytes/s)
system.physmem.bw_read::switch_cpus15.data     16735984                       # Total read bandwidth from this memory (bytes/s)
system.physmem.bw_read::total               441458070                       # Total read bandwidth from this memory (bytes/s)
system.physmem.bw_inst_read::switch_cpus00.inst      3347197                       # Instruction read bandwidth from this memory (bytes/s)
system.physmem.bw_inst_read::switch_cpus01.inst      1611613                       # Instruction read bandwidth from this memory (bytes/s)
system.physmem.bw_inst_read::switch_cpus02.inst      1859554                       # Instruction read bandwidth from this memory (bytes/s)
system.physmem.bw_inst_read::switch_cpus03.inst      1611613                       # Instruction read bandwidth from this memory (bytes/s)
system.physmem.bw_inst_read::switch_cpus04.inst      1611613                       # Instruction read bandwidth from this memory (bytes/s)
system.physmem.bw_inst_read::switch_cpus05.inst      3223227                       # Instruction read bandwidth from this memory (bytes/s)
system.physmem.bw_inst_read::switch_cpus06.inst      3347197                       # Instruction read bandwidth from this memory (bytes/s)
system.physmem.bw_inst_read::switch_cpus07.inst      3347197                       # Instruction read bandwidth from this memory (bytes/s)
system.physmem.bw_inst_read::switch_cpus08.inst      1611613                       # Instruction read bandwidth from this memory (bytes/s)
system.physmem.bw_inst_read::switch_cpus09.inst      1859554                       # Instruction read bandwidth from this memory (bytes/s)
system.physmem.bw_inst_read::switch_cpus10.inst      1735584                       # Instruction read bandwidth from this memory (bytes/s)
system.physmem.bw_inst_read::switch_cpus11.inst      1859554                       # Instruction read bandwidth from this memory (bytes/s)
system.physmem.bw_inst_read::switch_cpus12.inst      1735584                       # Instruction read bandwidth from this memory (bytes/s)
system.physmem.bw_inst_read::switch_cpus13.inst      1859554                       # Instruction read bandwidth from this memory (bytes/s)
system.physmem.bw_inst_read::switch_cpus14.inst      1611613                       # Instruction read bandwidth from this memory (bytes/s)
system.physmem.bw_inst_read::switch_cpus15.inst      3347197                       # Instruction read bandwidth from this memory (bytes/s)
system.physmem.bw_inst_read::total           35579462                       # Instruction read bandwidth from this memory (bytes/s)
system.physmem.bw_write::writebacks         165252347                       # Write bandwidth from this memory (bytes/s)
system.physmem.bw_write::total              165252347                       # Write bandwidth from this memory (bytes/s)
system.physmem.bw_total::writebacks         165252347                       # Total bandwidth to/from this memory (bytes/s)
system.physmem.bw_total::switch_cpus00.inst      3347197                       # Total bandwidth to/from this memory (bytes/s)
system.physmem.bw_total::switch_cpus00.data     13884668                       # Total bandwidth to/from this memory (bytes/s)
system.physmem.bw_total::switch_cpus01.inst      1611613                       # Total bandwidth to/from this memory (bytes/s)
system.physmem.bw_total::switch_cpus01.data     68927460                       # Total bandwidth to/from this memory (bytes/s)
system.physmem.bw_total::switch_cpus02.inst      1859554                       # Total bandwidth to/from this memory (bytes/s)
system.physmem.bw_total::switch_cpus02.data     20331121                       # Total bandwidth to/from this memory (bytes/s)
system.physmem.bw_total::switch_cpus03.inst      1611613                       # Total bandwidth to/from this memory (bytes/s)
system.physmem.bw_total::switch_cpus03.data     24298170                       # Total bandwidth to/from this memory (bytes/s)
system.physmem.bw_total::switch_cpus04.inst      1611613                       # Total bandwidth to/from this memory (bytes/s)
system.physmem.bw_total::switch_cpus04.data     23430378                       # Total bandwidth to/from this memory (bytes/s)
system.physmem.bw_total::switch_cpus05.inst      3223227                       # Total bandwidth to/from this memory (bytes/s)
system.physmem.bw_total::switch_cpus05.data     12520996                       # Total bandwidth to/from this memory (bytes/s)
system.physmem.bw_total::switch_cpus06.inst      3347197                       # Total bandwidth to/from this memory (bytes/s)
system.physmem.bw_total::switch_cpus06.data     17107895                       # Total bandwidth to/from this memory (bytes/s)
system.physmem.bw_total::switch_cpus07.inst      3347197                       # Total bandwidth to/from this memory (bytes/s)
system.physmem.bw_total::switch_cpus07.data     13636728                       # Total bandwidth to/from this memory (bytes/s)
system.physmem.bw_total::switch_cpus08.inst      1611613                       # Total bandwidth to/from this memory (bytes/s)
system.physmem.bw_total::switch_cpus08.data     23554348                       # Total bandwidth to/from this memory (bytes/s)
system.physmem.bw_total::switch_cpus09.inst      1859554                       # Total bandwidth to/from this memory (bytes/s)
system.physmem.bw_total::switch_cpus09.data     19215389                       # Total bandwidth to/from this memory (bytes/s)
system.physmem.bw_total::switch_cpus10.inst      1735584                       # Total bandwidth to/from this memory (bytes/s)
system.physmem.bw_total::switch_cpus10.data     45745023                       # Total bandwidth to/from this memory (bytes/s)
system.physmem.bw_total::switch_cpus11.inst      1859554                       # Total bandwidth to/from this memory (bytes/s)
system.physmem.bw_total::switch_cpus11.data     20207151                       # Total bandwidth to/from this memory (bytes/s)
system.physmem.bw_total::switch_cpus12.inst      1735584                       # Total bandwidth to/from this memory (bytes/s)
system.physmem.bw_total::switch_cpus12.data     46116934                       # Total bandwidth to/from this memory (bytes/s)
system.physmem.bw_total::switch_cpus13.inst      1859554                       # Total bandwidth to/from this memory (bytes/s)
system.physmem.bw_total::switch_cpus13.data     17479806                       # Total bandwidth to/from this memory (bytes/s)
system.physmem.bw_total::switch_cpus14.inst      1611613                       # Total bandwidth to/from this memory (bytes/s)
system.physmem.bw_total::switch_cpus14.data     22686556                       # Total bandwidth to/from this memory (bytes/s)
system.physmem.bw_total::switch_cpus15.inst      3347197                       # Total bandwidth to/from this memory (bytes/s)
system.physmem.bw_total::switch_cpus15.data     16735984                       # Total bandwidth to/from this memory (bytes/s)
system.physmem.bw_total::total              606710416                       # Total bandwidth to/from this memory (bytes/s)
system.switch_cpus00.dtb.inst_hits                  0                       # ITB inst hits
system.switch_cpus00.dtb.inst_misses                0                       # ITB inst misses
system.switch_cpus00.dtb.read_hits                  0                       # DTB read hits
system.switch_cpus00.dtb.read_misses                0                       # DTB read misses
system.switch_cpus00.dtb.write_hits                 0                       # DTB write hits
system.switch_cpus00.dtb.write_misses               0                       # DTB write misses
system.switch_cpus00.dtb.flush_tlb                  0                       # Number of times complete TLB was flushed
system.switch_cpus00.dtb.flush_tlb_mva              0                       # Number of times TLB was flushed by MVA
system.switch_cpus00.dtb.flush_tlb_mva_asid            0                       # Number of times TLB was flushed by MVA & ASID
system.switch_cpus00.dtb.flush_tlb_asid             0                       # Number of times TLB was flushed by ASID
system.switch_cpus00.dtb.flush_entries              0                       # Number of entries that have been flushed from TLB
system.switch_cpus00.dtb.align_faults               0                       # Number of TLB faults due to alignment restrictions
system.switch_cpus00.dtb.prefetch_faults            0                       # Number of TLB faults due to prefetch
system.switch_cpus00.dtb.domain_faults              0                       # Number of TLB faults due to domain restrictions
system.switch_cpus00.dtb.perms_faults               0                       # Number of TLB faults due to permissions restrictions
system.switch_cpus00.dtb.read_accesses              0                       # DTB read accesses
system.switch_cpus00.dtb.write_accesses             0                       # DTB write accesses
system.switch_cpus00.dtb.inst_accesses              0                       # ITB inst accesses
system.switch_cpus00.dtb.hits                       0                       # DTB hits
system.switch_cpus00.dtb.misses                     0                       # DTB misses
system.switch_cpus00.dtb.accesses                   0                       # DTB accesses
system.switch_cpus00.itb.inst_hits                  0                       # ITB inst hits
system.switch_cpus00.itb.inst_misses                0                       # ITB inst misses
system.switch_cpus00.itb.read_hits                  0                       # DTB read hits
system.switch_cpus00.itb.read_misses                0                       # DTB read misses
system.switch_cpus00.itb.write_hits                 0                       # DTB write hits
system.switch_cpus00.itb.write_misses               0                       # DTB write misses
system.switch_cpus00.itb.flush_tlb                  0                       # Number of times complete TLB was flushed
system.switch_cpus00.itb.flush_tlb_mva              0                       # Number of times TLB was flushed by MVA
system.switch_cpus00.itb.flush_tlb_mva_asid            0                       # Number of times TLB was flushed by MVA & ASID
system.switch_cpus00.itb.flush_tlb_asid             0                       # Number of times TLB was flushed by ASID
system.switch_cpus00.itb.flush_entries              0                       # Number of entries that have been flushed from TLB
system.switch_cpus00.itb.align_faults               0                       # Number of TLB faults due to alignment restrictions
system.switch_cpus00.itb.prefetch_faults            0                       # Number of TLB faults due to prefetch
system.switch_cpus00.itb.domain_faults              0                       # Number of TLB faults due to domain restrictions
system.switch_cpus00.itb.perms_faults               0                       # Number of TLB faults due to permissions restrictions
system.switch_cpus00.itb.read_accesses              0                       # DTB read accesses
system.switch_cpus00.itb.write_accesses             0                       # DTB write accesses
system.switch_cpus00.itb.inst_accesses              0                       # ITB inst accesses
system.switch_cpus00.itb.hits                       0                       # DTB hits
system.switch_cpus00.itb.misses                     0                       # DTB misses
system.switch_cpus00.itb.accesses                   0                       # DTB accesses
system.cpu00.workload.num_syscalls                  1                       # Number of system calls
system.switch_cpus00.numCycles                2476034                       # number of cpu cycles simulated
system.switch_cpus00.numWorkItemsStarted            0                       # number of work items this cpu started
system.switch_cpus00.numWorkItemsCompleted            0                       # number of work items this cpu completed
system.switch_cpus00.BPredUnit.lookups         224914                       # Number of BP lookups
system.switch_cpus00.BPredUnit.condPredicted       187221                       # Number of conditional branches predicted
system.switch_cpus00.BPredUnit.condIncorrect        21917                       # Number of conditional branches incorrect
system.switch_cpus00.BPredUnit.BTBLookups        84842                       # Number of BTB lookups
system.switch_cpus00.BPredUnit.BTBHits          80034                       # Number of BTB hits
system.switch_cpus00.BPredUnit.BTBCorrect            0                       # Number of correct BTB predictions (this stat may not work properly.
system.switch_cpus00.BPredUnit.usedRAS          23739                       # Number of times the RAS was used to get a target.
system.switch_cpus00.BPredUnit.RASInCorrect          976                       # Number of incorrect RAS predictions.
system.switch_cpus00.fetch.icacheStallCycles      1945024                       # Number of cycles fetch is stalled on an Icache miss
system.switch_cpus00.fetch.Insts              1233419                       # Number of instructions fetch has processed
system.switch_cpus00.fetch.Branches            224914                       # Number of branches that fetch encountered
system.switch_cpus00.fetch.predictedBranches       103773                       # Number of branches that fetch has predicted taken
system.switch_cpus00.fetch.Cycles              256372                       # Number of cycles fetch has run and was not squashing or blocked
system.switch_cpus00.fetch.SquashCycles         61889                       # Number of cycles fetch has spent squashing
system.switch_cpus00.fetch.BlockedCycles        60895                       # Number of cycles fetch has spent blocked
system.switch_cpus00.fetch.CacheLines          122199                       # Number of cache lines fetched
system.switch_cpus00.fetch.IcacheSquashes        20842                       # Number of outstanding Icache misses that were squashed
system.switch_cpus00.fetch.rateDist::samples      2302057                       # Number of instructions fetched each cycle (Total)
system.switch_cpus00.fetch.rateDist::mean     0.659184                       # Number of instructions fetched each cycle (Total)
system.switch_cpus00.fetch.rateDist::stdev     2.038957                       # Number of instructions fetched each cycle (Total)
system.switch_cpus00.fetch.rateDist::underflows            0      0.00%      0.00% # Number of instructions fetched each cycle (Total)
system.switch_cpus00.fetch.rateDist::0        2045685     88.86%     88.86% # Number of instructions fetched each cycle (Total)
system.switch_cpus00.fetch.rateDist::1          15540      0.68%     89.54% # Number of instructions fetched each cycle (Total)
system.switch_cpus00.fetch.rateDist::2          19803      0.86%     90.40% # Number of instructions fetched each cycle (Total)
system.switch_cpus00.fetch.rateDist::3          31352      1.36%     91.76% # Number of instructions fetched each cycle (Total)
system.switch_cpus00.fetch.rateDist::4          12679      0.55%     92.31% # Number of instructions fetched each cycle (Total)
system.switch_cpus00.fetch.rateDist::5          16715      0.73%     93.04% # Number of instructions fetched each cycle (Total)
system.switch_cpus00.fetch.rateDist::6          19571      0.85%     93.89% # Number of instructions fetched each cycle (Total)
system.switch_cpus00.fetch.rateDist::7           9136      0.40%     94.28% # Number of instructions fetched each cycle (Total)
system.switch_cpus00.fetch.rateDist::8         131576      5.72%    100.00% # Number of instructions fetched each cycle (Total)
system.switch_cpus00.fetch.rateDist::overflows            0      0.00%    100.00% # Number of instructions fetched each cycle (Total)
system.switch_cpus00.fetch.rateDist::min_value            0                       # Number of instructions fetched each cycle (Total)
system.switch_cpus00.fetch.rateDist::max_value            8                       # Number of instructions fetched each cycle (Total)
system.switch_cpus00.fetch.rateDist::total      2302057                       # Number of instructions fetched each cycle (Total)
system.switch_cpus00.fetch.branchRate        0.090836                       # Number of branch fetches per cycle
system.switch_cpus00.fetch.rate              0.498143                       # Number of inst fetches per cycle
system.switch_cpus00.decode.IdleCycles        1933623                       # Number of cycles decode is idle
system.switch_cpus00.decode.BlockedCycles        73696                       # Number of cycles decode is blocked
system.switch_cpus00.decode.RunCycles          255075                       # Number of cycles decode is running
system.switch_cpus00.decode.UnblockCycles          109                       # Number of cycles decode is unblocking
system.switch_cpus00.decode.SquashCycles        39548                       # Number of cycles decode is squashing
system.switch_cpus00.decode.BranchResolved        34103                       # Number of times decode resolved a branch
system.switch_cpus00.decode.BranchMispred          219                       # Number of times decode detected a branch misprediction
system.switch_cpus00.decode.DecodedInsts      1506796                       # Number of instructions handled by decode
system.switch_cpus00.decode.SquashedInsts         1283                       # Number of squashed instructions handled by decode
system.switch_cpus00.rename.SquashCycles        39548                       # Number of cycles rename is squashing
system.switch_cpus00.rename.IdleCycles        1936039                       # Number of cycles rename is idle
system.switch_cpus00.rename.BlockCycles          5360                       # Number of cycles rename is blocking
system.switch_cpus00.rename.serializeStallCycles        62547                       # count of cycles rename stalled for serializing inst
system.switch_cpus00.rename.RunCycles          252745                       # Number of cycles rename is running
system.switch_cpus00.rename.UnblockCycles         5813                       # Number of cycles rename is unblocking
system.switch_cpus00.rename.RenamedInsts      1496680                       # Number of instructions processed by rename
system.switch_cpus00.rename.ROBFullEvents            7                       # Number of times rename has blocked due to ROB full
system.switch_cpus00.rename.IQFullEvents          668                       # Number of times rename has blocked due to IQ full
system.switch_cpus00.rename.LSQFullEvents         4115                       # Number of times rename has blocked due to LSQ full
system.switch_cpus00.rename.RenamedOperands      2090984                       # Number of destination operands rename has renamed
system.switch_cpus00.rename.RenameLookups      6955826                       # Number of register rename lookups that rename has made
system.switch_cpus00.rename.int_rename_lookups      6955826                       # Number of integer rename lookups
system.switch_cpus00.rename.CommittedMaps      1718824                       # Number of HB maps that are committed
system.switch_cpus00.rename.UndoneMaps         372132                       # Number of HB maps that are undone due to squashing
system.switch_cpus00.rename.serializingInsts          355                       # count of serializing insts renamed
system.switch_cpus00.rename.tempSerializingInsts          185                       # count of temporary serializing insts renamed
system.switch_cpus00.rename.skidInsts           21179                       # count of insts added to the skid buffer
system.switch_cpus00.memDep0.insertedLoads       141706                       # Number of loads inserted to the mem dependence unit.
system.switch_cpus00.memDep0.insertedStores        72397                       # Number of stores inserted to the mem dependence unit.
system.switch_cpus00.memDep0.conflictingLoads          802                       # Number of conflicting loads.
system.switch_cpus00.memDep0.conflictingStores        15999                       # Number of conflicting stores.
system.switch_cpus00.iq.iqInstsAdded          1459627                       # Number of instructions added to the IQ (excludes non-spec)
system.switch_cpus00.iq.iqNonSpecInstsAdded          357                       # Number of non-speculative instructions added to the IQ
system.switch_cpus00.iq.iqInstsIssued         1389565                       # Number of instructions issued
system.switch_cpus00.iq.iqSquashedInstsIssued         1820                       # Number of squashed instructions issued
system.switch_cpus00.iq.iqSquashedInstsExamined       195881                       # Number of squashed instructions iterated over during squash; mainly for profiling
system.switch_cpus00.iq.iqSquashedOperandsExamined       416248                       # Number of squashed operands that are examined and possibly removed from graph
system.switch_cpus00.iq.iqSquashedNonSpecRemoved           12                       # Number of squashed non-spec instructions that were removed
system.switch_cpus00.iq.issued_per_cycle::samples      2302057                       # Number of insts issued each cycle
system.switch_cpus00.iq.issued_per_cycle::mean     0.603619                       # Number of insts issued each cycle
system.switch_cpus00.iq.issued_per_cycle::stdev     1.326080                       # Number of insts issued each cycle
system.switch_cpus00.iq.issued_per_cycle::underflows            0      0.00%      0.00% # Number of insts issued each cycle
system.switch_cpus00.iq.issued_per_cycle::0      1714893     74.49%     74.49% # Number of insts issued each cycle
system.switch_cpus00.iq.issued_per_cycle::1       266197     11.56%     86.06% # Number of insts issued each cycle
system.switch_cpus00.iq.issued_per_cycle::2       110263      4.79%     90.85% # Number of insts issued each cycle
system.switch_cpus00.iq.issued_per_cycle::3        61685      2.68%     93.53% # Number of insts issued each cycle
system.switch_cpus00.iq.issued_per_cycle::4        82925      3.60%     97.13% # Number of insts issued each cycle
system.switch_cpus00.iq.issued_per_cycle::5        26141      1.14%     98.26% # Number of insts issued each cycle
system.switch_cpus00.iq.issued_per_cycle::6        25403      1.10%     99.37% # Number of insts issued each cycle
system.switch_cpus00.iq.issued_per_cycle::7        13436      0.58%     99.95% # Number of insts issued each cycle
system.switch_cpus00.iq.issued_per_cycle::8         1114      0.05%    100.00% # Number of insts issued each cycle
system.switch_cpus00.iq.issued_per_cycle::overflows            0      0.00%    100.00% # Number of insts issued each cycle
system.switch_cpus00.iq.issued_per_cycle::min_value            0                       # Number of insts issued each cycle
system.switch_cpus00.iq.issued_per_cycle::max_value            8                       # Number of insts issued each cycle
system.switch_cpus00.iq.issued_per_cycle::total      2302057                       # Number of insts issued each cycle
system.switch_cpus00.iq.fu_full::No_OpClass            0      0.00%      0.00% # attempts to use FU when none available
system.switch_cpus00.iq.fu_full::IntAlu          9714     78.80%     78.80% # attempts to use FU when none available
system.switch_cpus00.iq.fu_full::IntMult            0      0.00%     78.80% # attempts to use FU when none available
system.switch_cpus00.iq.fu_full::IntDiv             0      0.00%     78.80% # attempts to use FU when none available
system.switch_cpus00.iq.fu_full::FloatAdd            0      0.00%     78.80% # attempts to use FU when none available
system.switch_cpus00.iq.fu_full::FloatCmp            0      0.00%     78.80% # attempts to use FU when none available
system.switch_cpus00.iq.fu_full::FloatCvt            0      0.00%     78.80% # attempts to use FU when none available
system.switch_cpus00.iq.fu_full::FloatMult            0      0.00%     78.80% # attempts to use FU when none available
system.switch_cpus00.iq.fu_full::FloatDiv            0      0.00%     78.80% # attempts to use FU when none available
system.switch_cpus00.iq.fu_full::FloatSqrt            0      0.00%     78.80% # attempts to use FU when none available
system.switch_cpus00.iq.fu_full::SimdAdd            0      0.00%     78.80% # attempts to use FU when none available
system.switch_cpus00.iq.fu_full::SimdAddAcc            0      0.00%     78.80% # attempts to use FU when none available
system.switch_cpus00.iq.fu_full::SimdAlu            0      0.00%     78.80% # attempts to use FU when none available
system.switch_cpus00.iq.fu_full::SimdCmp            0      0.00%     78.80% # attempts to use FU when none available
system.switch_cpus00.iq.fu_full::SimdCvt            0      0.00%     78.80% # attempts to use FU when none available
system.switch_cpus00.iq.fu_full::SimdMisc            0      0.00%     78.80% # attempts to use FU when none available
system.switch_cpus00.iq.fu_full::SimdMult            0      0.00%     78.80% # attempts to use FU when none available
system.switch_cpus00.iq.fu_full::SimdMultAcc            0      0.00%     78.80% # attempts to use FU when none available
system.switch_cpus00.iq.fu_full::SimdShift            0      0.00%     78.80% # attempts to use FU when none available
system.switch_cpus00.iq.fu_full::SimdShiftAcc            0      0.00%     78.80% # attempts to use FU when none available
system.switch_cpus00.iq.fu_full::SimdSqrt            0      0.00%     78.80% # attempts to use FU when none available
system.switch_cpus00.iq.fu_full::SimdFloatAdd            0      0.00%     78.80% # attempts to use FU when none available
system.switch_cpus00.iq.fu_full::SimdFloatAlu            0      0.00%     78.80% # attempts to use FU when none available
system.switch_cpus00.iq.fu_full::SimdFloatCmp            0      0.00%     78.80% # attempts to use FU when none available
system.switch_cpus00.iq.fu_full::SimdFloatCvt            0      0.00%     78.80% # attempts to use FU when none available
system.switch_cpus00.iq.fu_full::SimdFloatDiv            0      0.00%     78.80% # attempts to use FU when none available
system.switch_cpus00.iq.fu_full::SimdFloatMisc            0      0.00%     78.80% # attempts to use FU when none available
system.switch_cpus00.iq.fu_full::SimdFloatMult            0      0.00%     78.80% # attempts to use FU when none available
system.switch_cpus00.iq.fu_full::SimdFloatMultAcc            0      0.00%     78.80% # attempts to use FU when none available
system.switch_cpus00.iq.fu_full::SimdFloatSqrt            0      0.00%     78.80% # attempts to use FU when none available
system.switch_cpus00.iq.fu_full::MemRead         1357     11.01%     89.80% # attempts to use FU when none available
system.switch_cpus00.iq.fu_full::MemWrite         1257     10.20%    100.00% # attempts to use FU when none available
system.switch_cpus00.iq.fu_full::IprAccess            0      0.00%    100.00% # attempts to use FU when none available
system.switch_cpus00.iq.fu_full::InstPrefetch            0      0.00%    100.00% # attempts to use FU when none available
system.switch_cpus00.iq.FU_type_0::No_OpClass            0      0.00%      0.00% # Type of FU issued
system.switch_cpus00.iq.FU_type_0::IntAlu      1170658     84.25%     84.25% # Type of FU issued
system.switch_cpus00.iq.FU_type_0::IntMult        18843      1.36%     85.60% # Type of FU issued
system.switch_cpus00.iq.FU_type_0::IntDiv            0      0.00%     85.60% # Type of FU issued
system.switch_cpus00.iq.FU_type_0::FloatAdd            0      0.00%     85.60% # Type of FU issued
system.switch_cpus00.iq.FU_type_0::FloatCmp            0      0.00%     85.60% # Type of FU issued
system.switch_cpus00.iq.FU_type_0::FloatCvt            0      0.00%     85.60% # Type of FU issued
system.switch_cpus00.iq.FU_type_0::FloatMult            0      0.00%     85.60% # Type of FU issued
system.switch_cpus00.iq.FU_type_0::FloatDiv            0      0.00%     85.60% # Type of FU issued
system.switch_cpus00.iq.FU_type_0::FloatSqrt            0      0.00%     85.60% # Type of FU issued
system.switch_cpus00.iq.FU_type_0::SimdAdd            0      0.00%     85.60% # Type of FU issued
system.switch_cpus00.iq.FU_type_0::SimdAddAcc            0      0.00%     85.60% # Type of FU issued
system.switch_cpus00.iq.FU_type_0::SimdAlu            0      0.00%     85.60% # Type of FU issued
system.switch_cpus00.iq.FU_type_0::SimdCmp            0      0.00%     85.60% # Type of FU issued
system.switch_cpus00.iq.FU_type_0::SimdCvt            0      0.00%     85.60% # Type of FU issued
system.switch_cpus00.iq.FU_type_0::SimdMisc            0      0.00%     85.60% # Type of FU issued
system.switch_cpus00.iq.FU_type_0::SimdMult            0      0.00%     85.60% # Type of FU issued
system.switch_cpus00.iq.FU_type_0::SimdMultAcc            0      0.00%     85.60% # Type of FU issued
system.switch_cpus00.iq.FU_type_0::SimdShift            0      0.00%     85.60% # Type of FU issued
system.switch_cpus00.iq.FU_type_0::SimdShiftAcc            0      0.00%     85.60% # Type of FU issued
system.switch_cpus00.iq.FU_type_0::SimdSqrt            0      0.00%     85.60% # Type of FU issued
system.switch_cpus00.iq.FU_type_0::SimdFloatAdd            0      0.00%     85.60% # Type of FU issued
system.switch_cpus00.iq.FU_type_0::SimdFloatAlu            0      0.00%     85.60% # Type of FU issued
system.switch_cpus00.iq.FU_type_0::SimdFloatCmp            0      0.00%     85.60% # Type of FU issued
system.switch_cpus00.iq.FU_type_0::SimdFloatCvt            0      0.00%     85.60% # Type of FU issued
system.switch_cpus00.iq.FU_type_0::SimdFloatDiv            0      0.00%     85.60% # Type of FU issued
system.switch_cpus00.iq.FU_type_0::SimdFloatMisc          170      0.01%     85.61% # Type of FU issued
system.switch_cpus00.iq.FU_type_0::SimdFloatMult            0      0.00%     85.61% # Type of FU issued
system.switch_cpus00.iq.FU_type_0::SimdFloatMultAcc            0      0.00%     85.61% # Type of FU issued
system.switch_cpus00.iq.FU_type_0::SimdFloatSqrt            0      0.00%     85.61% # Type of FU issued
system.switch_cpus00.iq.FU_type_0::MemRead       127879      9.20%     94.82% # Type of FU issued
system.switch_cpus00.iq.FU_type_0::MemWrite        72015      5.18%    100.00% # Type of FU issued
system.switch_cpus00.iq.FU_type_0::IprAccess            0      0.00%    100.00% # Type of FU issued
system.switch_cpus00.iq.FU_type_0::InstPrefetch            0      0.00%    100.00% # Type of FU issued
system.switch_cpus00.iq.FU_type_0::total      1389565                       # Type of FU issued
system.switch_cpus00.iq.rate                 0.561206                       # Inst issue rate
system.switch_cpus00.iq.fu_busy_cnt             12328                       # FU busy when requested
system.switch_cpus00.iq.fu_busy_rate         0.008872                       # FU busy rate (busy events/executed inst)
system.switch_cpus00.iq.int_inst_queue_reads      5095335                       # Number of integer instruction queue reads
system.switch_cpus00.iq.int_inst_queue_writes      1655885                       # Number of integer instruction queue writes
system.switch_cpus00.iq.int_inst_queue_wakeup_accesses      1351335                       # Number of integer instruction queue wakeup accesses
system.switch_cpus00.iq.fp_inst_queue_reads            0                       # Number of floating instruction queue reads
system.switch_cpus00.iq.fp_inst_queue_writes            0                       # Number of floating instruction queue writes
system.switch_cpus00.iq.fp_inst_queue_wakeup_accesses            0                       # Number of floating instruction queue wakeup accesses
system.switch_cpus00.iq.int_alu_accesses      1401893                       # Number of integer alu accesses
system.switch_cpus00.iq.fp_alu_accesses             0                       # Number of floating point alu accesses
system.switch_cpus00.iew.lsq.thread0.forwLoads          986                       # Number of loads that had data forwarded from stores
system.switch_cpus00.iew.lsq.thread0.invAddrLoads            0                       # Number of loads ignored due to an invalid address
system.switch_cpus00.iew.lsq.thread0.squashedLoads        29998                       # Number of loads squashed
system.switch_cpus00.iew.lsq.thread0.ignoredResponses            2                       # Number of memory responses ignored because the instruction is squashed
system.switch_cpus00.iew.lsq.thread0.memOrderViolation           21                       # Number of memory ordering violations
system.switch_cpus00.iew.lsq.thread0.squashedStores         1490                       # Number of stores squashed
system.switch_cpus00.iew.lsq.thread0.invAddrSwpfs            0                       # Number of software prefetches ignored due to an invalid address
system.switch_cpus00.iew.lsq.thread0.blockedLoads            0                       # Number of blocked loads due to partial load-store forwarding
system.switch_cpus00.iew.lsq.thread0.rescheduledLoads            0                       # Number of loads that were rescheduled
system.switch_cpus00.iew.lsq.thread0.cacheBlocked            0                       # Number of times an access to memory failed due to the cache being blocked
system.switch_cpus00.iew.iewIdleCycles              0                       # Number of cycles IEW is idle
system.switch_cpus00.iew.iewSquashCycles        39548                       # Number of cycles IEW is squashing
system.switch_cpus00.iew.iewBlockCycles          4070                       # Number of cycles IEW is blocking
system.switch_cpus00.iew.iewUnblockCycles          488                       # Number of cycles IEW is unblocking
system.switch_cpus00.iew.iewDispatchedInsts      1459986                       # Number of instructions dispatched to IQ
system.switch_cpus00.iew.iewDispSquashedInsts         1142                       # Number of squashed instructions skipped by dispatch
system.switch_cpus00.iew.iewDispLoadInsts       141706                       # Number of dispatched load instructions
system.switch_cpus00.iew.iewDispStoreInsts        72397                       # Number of dispatched store instructions
system.switch_cpus00.iew.iewDispNonSpecInsts          185                       # Number of dispatched non-speculative instructions
system.switch_cpus00.iew.iewIQFullEvents          407                       # Number of times the IQ has become full, causing a stall
system.switch_cpus00.iew.iewLSQFullEvents            0                       # Number of times the LSQ has become full, causing a stall
system.switch_cpus00.iew.memOrderViolationEvents           21                       # Number of memory order violations
system.switch_cpus00.iew.predictedTakenIncorrect        12205                       # Number of branches that were predicted taken incorrectly
system.switch_cpus00.iew.predictedNotTakenIncorrect        12735                       # Number of branches that were predicted not taken incorrectly
system.switch_cpus00.iew.branchMispredicts        24940                       # Number of branch mispredicts detected at execute
system.switch_cpus00.iew.iewExecutedInsts      1364145                       # Number of executed instructions
system.switch_cpus00.iew.iewExecLoadInsts       125307                       # Number of load instructions executed
system.switch_cpus00.iew.iewExecSquashedInsts        25420                       # Number of squashed instructions skipped in execute
system.switch_cpus00.iew.exec_swp                   0                       # number of swp insts executed
system.switch_cpus00.iew.exec_nop                   2                       # number of nop insts executed
system.switch_cpus00.iew.exec_refs             197276                       # number of memory reference insts executed
system.switch_cpus00.iew.exec_branches         192504                       # Number of branches executed
system.switch_cpus00.iew.exec_stores            71969                       # Number of stores executed
system.switch_cpus00.iew.exec_rate           0.550940                       # Inst execution rate
system.switch_cpus00.iew.wb_sent              1351372                       # cumulative count of insts sent to commit
system.switch_cpus00.iew.wb_count             1351335                       # cumulative count of insts written-back
system.switch_cpus00.iew.wb_producers          809722                       # num instructions producing a value
system.switch_cpus00.iew.wb_consumers         2176580                       # num instructions consuming a value
system.switch_cpus00.iew.wb_penalized               0                       # number of instrctions required to write to 'other' IQ
system.switch_cpus00.iew.wb_rate             0.545766                       # insts written-back per cycle
system.switch_cpus00.iew.wb_fanout           0.372016                       # average fanout of values written-back
system.switch_cpus00.iew.wb_penalized_rate            0                       # fraction of instructions written-back that wrote to 'other' IQ
system.switch_cpus00.commit.commitCommittedInsts      1000005                       # The number of committed instructions
system.switch_cpus00.commit.commitCommittedOps      1232105                       # The number of committed instructions
system.switch_cpus00.commit.commitSquashedInsts       227874                       # The number of squashed insts skipped by commit
system.switch_cpus00.commit.commitNonSpecStalls          345                       # The number of times commit has been forced to stall to communicate backwards
system.switch_cpus00.commit.branchMispredicts        21890                       # The number of times a branch was mispredicted
system.switch_cpus00.commit.committed_per_cycle::samples      2262509                       # Number of insts commited each cycle
system.switch_cpus00.commit.committed_per_cycle::mean     0.544575                       # Number of insts commited each cycle
system.switch_cpus00.commit.committed_per_cycle::stdev     1.364073                       # Number of insts commited each cycle
system.switch_cpus00.commit.committed_per_cycle::underflows            0      0.00%      0.00% # Number of insts commited each cycle
system.switch_cpus00.commit.committed_per_cycle::0      1740485     76.93%     76.93% # Number of insts commited each cycle
system.switch_cpus00.commit.committed_per_cycle::1       264984     11.71%     88.64% # Number of insts commited each cycle
system.switch_cpus00.commit.committed_per_cycle::2        95904      4.24%     92.88% # Number of insts commited each cycle
system.switch_cpus00.commit.committed_per_cycle::3        47804      2.11%     94.99% # Number of insts commited each cycle
system.switch_cpus00.commit.committed_per_cycle::4        43604      1.93%     96.92% # Number of insts commited each cycle
system.switch_cpus00.commit.committed_per_cycle::5        18394      0.81%     97.73% # Number of insts commited each cycle
system.switch_cpus00.commit.committed_per_cycle::6        18220      0.81%     98.54% # Number of insts commited each cycle
system.switch_cpus00.commit.committed_per_cycle::7         8717      0.39%     98.92% # Number of insts commited each cycle
system.switch_cpus00.commit.committed_per_cycle::8        24397      1.08%    100.00% # Number of insts commited each cycle
system.switch_cpus00.commit.committed_per_cycle::overflows            0      0.00%    100.00% # Number of insts commited each cycle
system.switch_cpus00.commit.committed_per_cycle::min_value            0                       # Number of insts commited each cycle
system.switch_cpus00.commit.committed_per_cycle::max_value            8                       # Number of insts commited each cycle
system.switch_cpus00.commit.committed_per_cycle::total      2262509                       # Number of insts commited each cycle
system.switch_cpus00.commit.committedInsts      1000005                       # Number of instructions committed
system.switch_cpus00.commit.committedOps      1232105                       # Number of ops (including micro ops) committed
system.switch_cpus00.commit.swp_count               0                       # Number of s/w prefetches committed
system.switch_cpus00.commit.refs               182615                       # Number of memory references committed
system.switch_cpus00.commit.loads              111708                       # Number of loads committed
system.switch_cpus00.commit.membars               172                       # Number of memory barriers committed
system.switch_cpus00.commit.branches           178645                       # Number of branches committed
system.switch_cpus00.commit.fp_insts                0                       # Number of committed floating point instructions.
system.switch_cpus00.commit.int_insts         1109201                       # Number of committed integer instructions.
system.switch_cpus00.commit.function_calls        25420                       # Number of function calls committed.
system.switch_cpus00.commit.bw_lim_events        24397                       # number cycles where commit BW limit reached
system.switch_cpus00.commit.bw_limited              0                       # number of insts not committed due to BW limits
system.switch_cpus00.rob.rob_reads            3698078                       # The number of ROB reads
system.switch_cpus00.rob.rob_writes           2959523                       # The number of ROB writes
system.switch_cpus00.timesIdled                 30977                       # Number of times that the entire CPU went into an idle state and unscheduled itself
system.switch_cpus00.idleCycles                173977                       # Total number of cycles that the CPU has spent unscheduled due to idling
system.switch_cpus00.committedInsts           1000005                       # Number of Instructions Simulated
system.switch_cpus00.committedOps             1232105                       # Number of Ops (including micro ops) Simulated
system.switch_cpus00.committedInsts_total      1000005                       # Number of Instructions Simulated
system.switch_cpus00.cpi                     2.476022                       # CPI: Cycles Per Instruction
system.switch_cpus00.cpi_total               2.476022                       # CPI: Total CPI of All Threads
system.switch_cpus00.ipc                     0.403874                       # IPC: Instructions Per Cycle
system.switch_cpus00.ipc_total               0.403874                       # IPC: Total IPC of All Threads
system.switch_cpus00.int_regfile_reads        6134581                       # number of integer regfile reads
system.switch_cpus00.int_regfile_writes       1890536                       # number of integer regfile writes
system.switch_cpus00.misc_regfile_reads       1391778                       # number of misc regfile reads
system.switch_cpus00.misc_regfile_writes          344                       # number of misc regfile writes
system.switch_cpus01.dtb.inst_hits                  0                       # ITB inst hits
system.switch_cpus01.dtb.inst_misses                0                       # ITB inst misses
system.switch_cpus01.dtb.read_hits                  0                       # DTB read hits
system.switch_cpus01.dtb.read_misses                0                       # DTB read misses
system.switch_cpus01.dtb.write_hits                 0                       # DTB write hits
system.switch_cpus01.dtb.write_misses               0                       # DTB write misses
system.switch_cpus01.dtb.flush_tlb                  0                       # Number of times complete TLB was flushed
system.switch_cpus01.dtb.flush_tlb_mva              0                       # Number of times TLB was flushed by MVA
system.switch_cpus01.dtb.flush_tlb_mva_asid            0                       # Number of times TLB was flushed by MVA & ASID
system.switch_cpus01.dtb.flush_tlb_asid             0                       # Number of times TLB was flushed by ASID
system.switch_cpus01.dtb.flush_entries              0                       # Number of entries that have been flushed from TLB
system.switch_cpus01.dtb.align_faults               0                       # Number of TLB faults due to alignment restrictions
system.switch_cpus01.dtb.prefetch_faults            0                       # Number of TLB faults due to prefetch
system.switch_cpus01.dtb.domain_faults              0                       # Number of TLB faults due to domain restrictions
system.switch_cpus01.dtb.perms_faults               0                       # Number of TLB faults due to permissions restrictions
system.switch_cpus01.dtb.read_accesses              0                       # DTB read accesses
system.switch_cpus01.dtb.write_accesses             0                       # DTB write accesses
system.switch_cpus01.dtb.inst_accesses              0                       # ITB inst accesses
system.switch_cpus01.dtb.hits                       0                       # DTB hits
system.switch_cpus01.dtb.misses                     0                       # DTB misses
system.switch_cpus01.dtb.accesses                   0                       # DTB accesses
system.switch_cpus01.itb.inst_hits                  0                       # ITB inst hits
[...]
system.cpu15.icache.demand_avg_miss_latency::total 179385.900000                       # average overall miss latency
system.cpu15.icache.overall_avg_miss_latency::switch_cpus15.inst 179385.900000                       # average overall miss latency
system.cpu15.icache.overall_avg_miss_latency::total 179385.900000                       # average overall miss latency
system.cpu15.icache.blocked_cycles::no_mshrs            0                       # number of cycles access was blocked
system.cpu15.icache.blocked_cycles::no_targets            0                       # number of cycles access was blocked
system.cpu15.icache.blocked::no_mshrs               0                       # number of cycles access was blocked
system.cpu15.icache.blocked::no_targets             0                       # number of cycles access was blocked
system.cpu15.icache.avg_blocked_cycles::no_mshrs          nan                       # average number of cycles each access was blocked
system.cpu15.icache.avg_blocked_cycles::no_targets          nan                       # average number of cycles each access was blocked
system.cpu15.icache.fast_writes                     0                       # number of fast writes performed
system.cpu15.icache.cache_copies                    0                       # number of cache copies performed
system.cpu15.icache.ReadReq_mshr_hits::switch_cpus15.inst            2                       # number of ReadReq MSHR hits
system.cpu15.icache.ReadReq_mshr_hits::total            2                       # number of ReadReq MSHR hits
system.cpu15.icache.demand_mshr_hits::switch_cpus15.inst            2                       # number of demand (read+write) MSHR hits
system.cpu15.icache.demand_mshr_hits::total            2                       # number of demand (read+write) MSHR hits
system.cpu15.icache.overall_mshr_hits::switch_cpus15.inst            2                       # number of overall MSHR hits
system.cpu15.icache.overall_mshr_hits::total            2                       # number of overall MSHR hits
system.cpu15.icache.ReadReq_mshr_misses::switch_cpus15.inst           28                       # number of ReadReq MSHR misses
system.cpu15.icache.ReadReq_mshr_misses::total           28                       # number of ReadReq MSHR misses
system.cpu15.icache.demand_mshr_misses::switch_cpus15.inst           28                       # number of demand (read+write) MSHR misses
system.cpu15.icache.demand_mshr_misses::total           28                       # number of demand (read+write) MSHR misses
system.cpu15.icache.overall_mshr_misses::switch_cpus15.inst           28                       # number of overall MSHR misses
system.cpu15.icache.overall_mshr_misses::total           28                       # number of overall MSHR misses
system.cpu15.icache.ReadReq_mshr_miss_latency::switch_cpus15.inst      4847023                       # number of ReadReq MSHR miss cycles
system.cpu15.icache.ReadReq_mshr_miss_latency::total      4847023                       # number of ReadReq MSHR miss cycles
system.cpu15.icache.demand_mshr_miss_latency::switch_cpus15.inst      4847023                       # number of demand (read+write) MSHR miss cycles
system.cpu15.icache.demand_mshr_miss_latency::total      4847023                       # number of demand (read+write) MSHR miss cycles
system.cpu15.icache.overall_mshr_miss_latency::switch_cpus15.inst      4847023                       # number of overall MSHR miss cycles
system.cpu15.icache.overall_mshr_miss_latency::total      4847023                       # number of overall MSHR miss cycles
system.cpu15.icache.ReadReq_mshr_miss_rate::switch_cpus15.inst     0.000231                       # mshr miss rate for ReadReq accesses
system.cpu15.icache.ReadReq_mshr_miss_rate::total     0.000231                       # mshr miss rate for ReadReq accesses
system.cpu15.icache.demand_mshr_miss_rate::switch_cpus15.inst     0.000231                       # mshr miss rate for demand accesses
system.cpu15.icache.demand_mshr_miss_rate::total     0.000231                       # mshr miss rate for demand accesses
system.cpu15.icache.overall_mshr_miss_rate::switch_cpus15.inst     0.000231                       # mshr miss rate for overall accesses
system.cpu15.icache.overall_mshr_miss_rate::total     0.000231                       # mshr miss rate for overall accesses
system.cpu15.icache.ReadReq_avg_mshr_miss_latency::switch_cpus15.inst 173107.964286                       # average ReadReq mshr miss latency
system.cpu15.icache.ReadReq_avg_mshr_miss_latency::total 173107.964286                       # average ReadReq mshr miss latency
system.cpu15.icache.demand_avg_mshr_miss_latency::switch_cpus15.inst 173107.964286                       # average overall mshr miss latency
system.cpu15.icache.demand_avg_mshr_miss_latency::total 173107.964286                       # average overall mshr miss latency
system.cpu15.icache.overall_avg_mshr_miss_latency::switch_cpus15.inst 173107.964286                       # average overall mshr miss latency
system.cpu15.icache.overall_avg_mshr_miss_latency::total 173107.964286                       # average overall mshr miss latency
system.cpu15.icache.no_allocate_misses              0                       # Number of misses that were no-allocate
system.cpu15.dcache.replacements                  404                       # number of replacements
system.cpu15.dcache.tagsinuse                     256                       # Cycle average of tags in use
system.cpu15.dcache.total_refs              112794712                       # Total number of references to valid blocks.
system.cpu15.dcache.sampled_refs                  660                       # Sample count of references to valid blocks.
system.cpu15.dcache.avg_refs             170901.078788                       # Average number of references to valid blocks.
system.cpu15.dcache.warmup_cycle                    0                       # Cycle when the warmup percentage was hit.
system.cpu15.dcache.occ_blocks::switch_cpus15.data   158.960699                       # Average occupied blocks per requestor
system.cpu15.dcache.occ_blocks::cpu15.data    97.039301                       # Average occupied blocks per requestor
system.cpu15.dcache.occ_percent::switch_cpus15.data     0.620940                       # Average percentage of cache occupancy
system.cpu15.dcache.occ_percent::cpu15.data     0.379060                       # Average percentage of cache occupancy
system.cpu15.dcache.occ_percent::total              1                       # Average percentage of cache occupancy
system.cpu15.dcache.ReadReq_hits::switch_cpus15.data        81851                       # number of ReadReq hits
system.cpu15.dcache.ReadReq_hits::total         81851                       # number of ReadReq hits
system.cpu15.dcache.WriteReq_hits::switch_cpus15.data        68430                       # number of WriteReq hits
system.cpu15.dcache.WriteReq_hits::total        68430                       # number of WriteReq hits
system.cpu15.dcache.LoadLockedReq_hits::switch_cpus15.data          165                       # number of LoadLockedReq hits
system.cpu15.dcache.LoadLockedReq_hits::total          165                       # number of LoadLockedReq hits
system.cpu15.dcache.StoreCondReq_hits::switch_cpus15.data          164                       # number of StoreCondReq hits
system.cpu15.dcache.StoreCondReq_hits::total          164                       # number of StoreCondReq hits
system.cpu15.dcache.demand_hits::switch_cpus15.data       150281                       # number of demand (read+write) hits
system.cpu15.dcache.demand_hits::total         150281                       # number of demand (read+write) hits
system.cpu15.dcache.overall_hits::switch_cpus15.data       150281                       # number of overall hits
system.cpu15.dcache.overall_hits::total        150281                       # number of overall hits
system.cpu15.dcache.ReadReq_misses::switch_cpus15.data         1304                       # number of ReadReq misses
system.cpu15.dcache.ReadReq_misses::total         1304                       # number of ReadReq misses
system.cpu15.dcache.WriteReq_misses::switch_cpus15.data           15                       # number of WriteReq misses
system.cpu15.dcache.WriteReq_misses::total           15                       # number of WriteReq misses
system.cpu15.dcache.demand_misses::switch_cpus15.data         1319                       # number of demand (read+write) misses
system.cpu15.dcache.demand_misses::total         1319                       # number of demand (read+write) misses
system.cpu15.dcache.overall_misses::switch_cpus15.data         1319                       # number of overall misses
system.cpu15.dcache.overall_misses::total         1319                       # number of overall misses
system.cpu15.dcache.ReadReq_miss_latency::switch_cpus15.data    153956976                       # number of ReadReq miss cycles
system.cpu15.dcache.ReadReq_miss_latency::total    153956976                       # number of ReadReq miss cycles
system.cpu15.dcache.WriteReq_miss_latency::switch_cpus15.data      1190469                       # number of WriteReq miss cycles
system.cpu15.dcache.WriteReq_miss_latency::total      1190469                       # number of WriteReq miss cycles
system.cpu15.dcache.demand_miss_latency::switch_cpus15.data    155147445                       # number of demand (read+write) miss cycles
system.cpu15.dcache.demand_miss_latency::total    155147445                       # number of demand (read+write) miss cycles
system.cpu15.dcache.overall_miss_latency::switch_cpus15.data    155147445                       # number of overall miss cycles
system.cpu15.dcache.overall_miss_latency::total    155147445                       # number of overall miss cycles
system.cpu15.dcache.ReadReq_accesses::switch_cpus15.data        83155                       # number of ReadReq accesses(hits+misses)
system.cpu15.dcache.ReadReq_accesses::total        83155                       # number of ReadReq accesses(hits+misses)
system.cpu15.dcache.WriteReq_accesses::switch_cpus15.data        68445                       # number of WriteReq accesses(hits+misses)
system.cpu15.dcache.WriteReq_accesses::total        68445                       # number of WriteReq accesses(hits+misses)
system.cpu15.dcache.LoadLockedReq_accesses::switch_cpus15.data          165                       # number of LoadLockedReq accesses(hits+misses)
system.cpu15.dcache.LoadLockedReq_accesses::total          165                       # number of LoadLockedReq accesses(hits+misses)
system.cpu15.dcache.StoreCondReq_accesses::switch_cpus15.data          164                       # number of StoreCondReq accesses(hits+misses)
system.cpu15.dcache.StoreCondReq_accesses::total          164                       # number of StoreCondReq accesses(hits+misses)
system.cpu15.dcache.demand_accesses::switch_cpus15.data       151600                       # number of demand (read+write) accesses
system.cpu15.dcache.demand_accesses::total       151600                       # number of demand (read+write) accesses
system.cpu15.dcache.overall_accesses::switch_cpus15.data       151600                       # number of overall (read+write) accesses
system.cpu15.dcache.overall_accesses::total       151600                       # number of overall (read+write) accesses
system.cpu15.dcache.ReadReq_miss_rate::switch_cpus15.data     0.015682                       # miss rate for ReadReq accesses
system.cpu15.dcache.ReadReq_miss_rate::total     0.015682                       # miss rate for ReadReq accesses
system.cpu15.dcache.WriteReq_miss_rate::switch_cpus15.data     0.000219                       # miss rate for WriteReq accesses
system.cpu15.dcache.WriteReq_miss_rate::total     0.000219                       # miss rate for WriteReq accesses
system.cpu15.dcache.demand_miss_rate::switch_cpus15.data     0.008701                       # miss rate for demand accesses
system.cpu15.dcache.demand_miss_rate::total     0.008701                       # miss rate for demand accesses
system.cpu15.dcache.overall_miss_rate::switch_cpus15.data     0.008701                       # miss rate for overall accesses
system.cpu15.dcache.overall_miss_rate::total     0.008701                       # miss rate for overall accesses
system.cpu15.dcache.ReadReq_avg_miss_latency::switch_cpus15.data 118065.165644                       # average ReadReq miss latency
system.cpu15.dcache.ReadReq_avg_miss_latency::total 118065.165644                       # average ReadReq miss latency
system.cpu15.dcache.WriteReq_avg_miss_latency::switch_cpus15.data 79364.600000                       # average WriteReq miss latency
system.cpu15.dcache.WriteReq_avg_miss_latency::total 79364.600000                       # average WriteReq miss latency
system.cpu15.dcache.demand_avg_miss_latency::switch_cpus15.data 117625.053071                       # average overall miss latency
system.cpu15.dcache.demand_avg_miss_latency::total 117625.053071                       # average overall miss latency
system.cpu15.dcache.overall_avg_miss_latency::switch_cpus15.data 117625.053071                       # average overall miss latency
system.cpu15.dcache.overall_avg_miss_latency::total 117625.053071                       # average overall miss latency
system.cpu15.dcache.blocked_cycles::no_mshrs            0                       # number of cycles access was blocked
system.cpu15.dcache.blocked_cycles::no_targets            0                       # number of cycles access was blocked
system.cpu15.dcache.blocked::no_mshrs               0                       # number of cycles access was blocked
system.cpu15.dcache.blocked::no_targets             0                       # number of cycles access was blocked
system.cpu15.dcache.avg_blocked_cycles::no_mshrs          nan                       # average number of cycles each access was blocked
system.cpu15.dcache.avg_blocked_cycles::no_targets          nan                       # average number of cycles each access was blocked
system.cpu15.dcache.fast_writes                     0                       # number of fast writes performed
system.cpu15.dcache.cache_copies                    0                       # number of cache copies performed
system.cpu15.dcache.writebacks::writebacks           83                       # number of writebacks
system.cpu15.dcache.writebacks::total              83                       # number of writebacks
system.cpu15.dcache.ReadReq_mshr_hits::switch_cpus15.data          903                       # number of ReadReq MSHR hits
system.cpu15.dcache.ReadReq_mshr_hits::total          903                       # number of ReadReq MSHR hits
system.cpu15.dcache.WriteReq_mshr_hits::switch_cpus15.data           12                       # number of WriteReq MSHR hits
system.cpu15.dcache.WriteReq_mshr_hits::total           12                       # number of WriteReq MSHR hits
system.cpu15.dcache.demand_mshr_hits::switch_cpus15.data          915                       # number of demand (read+write) MSHR hits
system.cpu15.dcache.demand_mshr_hits::total          915                       # number of demand (read+write) MSHR hits
system.cpu15.dcache.overall_mshr_hits::switch_cpus15.data          915                       # number of overall MSHR hits
system.cpu15.dcache.overall_mshr_hits::total          915                       # number of overall MSHR hits
system.cpu15.dcache.ReadReq_mshr_misses::switch_cpus15.data          401                       # number of ReadReq MSHR misses
system.cpu15.dcache.ReadReq_mshr_misses::total          401                       # number of ReadReq MSHR misses
system.cpu15.dcache.WriteReq_mshr_misses::switch_cpus15.data            3                       # number of WriteReq MSHR misses
system.cpu15.dcache.WriteReq_mshr_misses::total            3                       # number of WriteReq MSHR misses
system.cpu15.dcache.demand_mshr_misses::switch_cpus15.data          404                       # number of demand (read+write) MSHR misses
system.cpu15.dcache.demand_mshr_misses::total          404                       # number of demand (read+write) MSHR misses
system.cpu15.dcache.overall_mshr_misses::switch_cpus15.data          404                       # number of overall MSHR misses
system.cpu15.dcache.overall_mshr_misses::total          404                       # number of overall MSHR misses
system.cpu15.dcache.ReadReq_mshr_miss_latency::switch_cpus15.data     40048052                       # number of ReadReq MSHR miss cycles
system.cpu15.dcache.ReadReq_mshr_miss_latency::total     40048052                       # number of ReadReq MSHR miss cycles
system.cpu15.dcache.WriteReq_mshr_miss_latency::switch_cpus15.data       192300                       # number of WriteReq MSHR miss cycles
system.cpu15.dcache.WriteReq_mshr_miss_latency::total       192300                       # number of WriteReq MSHR miss cycles
system.cpu15.dcache.demand_mshr_miss_latency::switch_cpus15.data     40240352                       # number of demand (read+write) MSHR miss cycles
system.cpu15.dcache.demand_mshr_miss_latency::total     40240352                       # number of demand (read+write) MSHR miss cycles
system.cpu15.dcache.overall_mshr_miss_latency::switch_cpus15.data     40240352                       # number of overall MSHR miss cycles
system.cpu15.dcache.overall_mshr_miss_latency::total     40240352                       # number of overall MSHR miss cycles
system.cpu15.dcache.ReadReq_mshr_miss_rate::switch_cpus15.data     0.004822                       # mshr miss rate for ReadReq accesses
system.cpu15.dcache.ReadReq_mshr_miss_rate::total     0.004822                       # mshr miss rate for ReadReq accesses
system.cpu15.dcache.WriteReq_mshr_miss_rate::switch_cpus15.data     0.000044                       # mshr miss rate for WriteReq accesses
system.cpu15.dcache.WriteReq_mshr_miss_rate::total     0.000044                       # mshr miss rate for WriteReq accesses
system.cpu15.dcache.demand_mshr_miss_rate::switch_cpus15.data     0.002665                       # mshr miss rate for demand accesses
system.cpu15.dcache.demand_mshr_miss_rate::total     0.002665                       # mshr miss rate for demand accesses
system.cpu15.dcache.overall_mshr_miss_rate::switch_cpus15.data     0.002665                       # mshr miss rate for overall accesses
system.cpu15.dcache.overall_mshr_miss_rate::total     0.002665                       # mshr miss rate for overall accesses
system.cpu15.dcache.ReadReq_avg_mshr_miss_latency::switch_cpus15.data 99870.453865                       # average ReadReq mshr miss latency
system.cpu15.dcache.ReadReq_avg_mshr_miss_latency::total 99870.453865                       # average ReadReq mshr miss latency
system.cpu15.dcache.WriteReq_avg_mshr_miss_latency::switch_cpus15.data        64100                       # average WriteReq mshr miss latency
system.cpu15.dcache.WriteReq_avg_mshr_miss_latency::total        64100                       # average WriteReq mshr miss latency
system.cpu15.dcache.demand_avg_mshr_miss_latency::switch_cpus15.data 99604.831683                       # average overall mshr miss latency
system.cpu15.dcache.demand_avg_mshr_miss_latency::total 99604.831683                       # average overall mshr miss latency
system.cpu15.dcache.overall_avg_mshr_miss_latency::switch_cpus15.data 99604.831683                       # average overall mshr miss latency
system.cpu15.dcache.overall_avg_mshr_miss_latency::total 99604.831683                       # average overall mshr miss latency
system.cpu15.dcache.no_allocate_misses              0                       # Number of misses that were no-allocate

---------- End Simulation Statistics   ----------
