
---------- Begin Simulation Statistics ----------
sim_seconds                                  0.003748                       # Number of seconds simulated
sim_ticks                                  3748491813                       # Number of ticks simulated
final_tick                               533319836067                       # Number of ticks from beginning of simulation (restored from checkpoints and never reset)
sim_freq                                 1000000000000                       # Frequency of simulated ticks
host_inst_rate                                 302301                       # Simulator instruction rate (inst/s)
host_op_rate                                   382402                       # Simulator op (including micro ops) rate (op/s)
host_tick_rate                                 279447                       # Simulator tick rate (ticks/s)
host_mem_usage                               16925744                       # Number of bytes of host memory used
host_seconds                                 13413.97                       # Real time elapsed on the host
sim_insts                                  4055057306                       # Number of instructions simulated
sim_ops                                    5129527454                       # Number of ops (including micro ops) simulated
system.physmem.bytes_read::switch_cpus0.inst         5632                       # Number of bytes read from this memory
system.physmem.bytes_read::switch_cpus0.data       309120                       # Number of bytes read from this memory
system.physmem.bytes_read::switch_cpus1.inst         5504                       # Number of bytes read from this memory
system.physmem.bytes_read::switch_cpus1.data       320896                       # Number of bytes read from this memory
system.physmem.bytes_read::switch_cpus2.inst         5248                       # Number of bytes read from this memory
system.physmem.bytes_read::switch_cpus2.data        84352                       # Number of bytes read from this memory
system.physmem.bytes_read::switch_cpus3.inst         5248                       # Number of bytes read from this memory
system.physmem.bytes_read::switch_cpus3.data       175872                       # Number of bytes read from this memory
system.physmem.bytes_read::total               911872                       # Number of bytes read from this memory
system.physmem.bytes_inst_read::switch_cpus0.inst         5632                       # Number of instructions bytes read from this memory
system.physmem.bytes_inst_read::switch_cpus1.inst         5504                       # Number of instructions bytes read from this memory
system.physmem.bytes_inst_read::switch_cpus2.inst         5248                       # Number of instructions bytes read from this memory
system.physmem.bytes_inst_read::switch_cpus3.inst         5248                       # Number of instructions bytes read from this memory
system.physmem.bytes_inst_read::total           21632                       # Number of instructions bytes read from this memory
system.physmem.bytes_written::writebacks       314112                       # Number of bytes written to this memory
system.physmem.bytes_written::total            314112                       # Number of bytes written to this memory
system.physmem.num_reads::switch_cpus0.inst           44                       # Number of read requests responded to by this memory
system.physmem.num_reads::switch_cpus0.data         2415                       # Number of read requests responded to by this memory
system.physmem.num_reads::switch_cpus1.inst           43                       # Number of read requests responded to by this memory
system.physmem.num_reads::switch_cpus1.data         2507                       # Number of read requests responded to by this memory
system.physmem.num_reads::switch_cpus2.inst           41                       # Number of read requests responded to by this memory
system.physmem.num_reads::switch_cpus2.data          659                       # Number of read requests responded to by this memory
system.physmem.num_reads::switch_cpus3.inst           41                       # Number of read requests responded to by this memory
system.physmem.num_reads::switch_cpus3.data         1374                       # Number of read requests responded to by this memory
system.physmem.num_reads::total                  7124                       # Number of read requests responded to by this memory
system.physmem.num_writes::writebacks            2454                       # Number of write requests responded to by this memory
system.physmem.num_writes::functional               0                       # Number of write requests responded to by this memory
system.physmem.num_writes::interrupt                0                       # Number of write requests responded to by this memory
system.physmem.num_writes::switch_cpus0.dtb.walker            0                       # Number of write requests responded to by this memory
system.physmem.num_writes::switch_cpus0.itb.walker            0                       # Number of write requests responded to by this memory
system.physmem.num_writes::switch_cpus0.inst            0                       # Number of write requests responded to by this memory
system.physmem.num_writes::switch_cpus0.data            0                       # Number of write requests responded to by this memory
system.physmem.num_writes::switch_cpus1.dtb.walker            0                       # Number of write requests responded to by this memory
system.physmem.num_writes::switch_cpus1.itb.walker            0                       # Number of write requests responded to by this memory
system.physmem.num_writes::switch_cpus1.inst            0                       # Number of write requests responded to by this memory
system.physmem.num_writes::switch_cpus1.data            0                       # Number of write requests responded to by this memory
system.physmem.num_writes::switch_cpus2.dtb.walker            0                       # Number of write requests responded to by this memory
system.physmem.num_writes::switch_cpus2.itb.walker            0                       # Number of write requests responded to by this memory
system.physmem.num_writes::switch_cpus2.inst            0                       # Number of write requests responded to by this memory
system.physmem.num_writes::switch_cpus2.data            0                       # Number of write requests responded to by this memory
system.physmem.num_writes::switch_cpus3.dtb.walker            0                       # Number of write requests responded to by this memory
system.physmem.num_writes::switch_cpus3.itb.walker            0                       # Number of write requests responded to by this memory
system.physmem.num_writes::switch_cpus3.inst            0                       # Number of write requests responded to by this memory
system.physmem.num_writes::switch_cpus3.data            0                       # Number of write requests responded to by this memory
system.physmem.num_writes::cpu0.dtb.walker            0                       # Number of write requests responded to by this memory
system.physmem.num_writes::cpu0.itb.walker            0                       # Number of write requests responded to by this memory
system.physmem.num_writes::cpu0.inst                0                       # Number of write requests responded to by this memory
system.physmem.num_writes::cpu0.data                0                       # Number of write requests responded to by this memory
system.physmem.num_writes::cpu1.dtb.walker            0                       # Number of write requests responded to by this memory
system.physmem.num_writes::cpu1.itb.walker            0                       # Number of write requests responded to by this memory
system.physmem.num_writes::cpu1.inst                0                       # Number of write requests responded to by this memory
system.physmem.num_writes::cpu1.data                0                       # Number of write requests responded to by this memory
system.physmem.num_writes::cpu2.dtb.walker            0                       # Number of write requests responded to by this memory
system.physmem.num_writes::cpu2.itb.walker            0                       # Number of write requests responded to by this memory
system.physmem.num_writes::cpu2.inst                0                       # Number of write requests responded to by this memory
system.physmem.num_writes::cpu2.data                0                       # Number of write requests responded to by this memory
system.physmem.num_writes::cpu3.dtb.walker            0                       # Number of write requests responded to by this memory
system.physmem.num_writes::cpu3.itb.walker            0                       # Number of write requests responded to by this memory
system.physmem.num_writes::cpu3.inst                0                       # Number of write requests responded to by this memory
system.physmem.num_writes::cpu3.data                0                       # Number of write requests responded to by this memory
system.physmem.num_writes::total                 2454                       # Number of write requests responded to by this memory
system.physmem.bw_read::switch_cpus0.inst      1502471                       # Total read bandwidth from this memory (bytes/s)
system.physmem.bw_read::switch_cpus0.data     82465166                       # Total read bandwidth from this memory (bytes/s)
system.physmem.bw_read::switch_cpus1.inst      1468324                       # Total read bandwidth from this memory (bytes/s)
system.physmem.bw_read::switch_cpus1.data     85606696                       # Total read bandwidth from this memory (bytes/s)
system.physmem.bw_read::switch_cpus2.inst      1400030                       # Total read bandwidth from this memory (bytes/s)
system.physmem.bw_read::switch_cpus2.data     22502917                       # Total read bandwidth from this memory (bytes/s)
system.physmem.bw_read::switch_cpus3.inst      1400030                       # Total read bandwidth from this memory (bytes/s)
system.physmem.bw_read::switch_cpus3.data     46918070                       # Total read bandwidth from this memory (bytes/s)
system.physmem.bw_read::total               243263703                       # Total read bandwidth from this memory (bytes/s)
system.physmem.bw_inst_read::switch_cpus0.inst      1502471                       # Instruction read bandwidth from this memory (bytes/s)
system.physmem.bw_inst_read::switch_cpus1.inst      1468324                       # Instruction read bandwidth from this memory (bytes/s)
system.physmem.bw_inst_read::switch_cpus2.inst      1400030                       # Instruction read bandwidth from this memory (bytes/s)
system.physmem.bw_inst_read::switch_cpus3.inst      1400030                       # Instruction read bandwidth from this memory (bytes/s)
system.physmem.bw_inst_read::total            5770854                       # Instruction read bandwidth from this memory (bytes/s)
system.physmem.bw_write::writebacks          83796902                       # Write bandwidth from this memory (bytes/s)
system.physmem.bw_write::total               83796902                       # Write bandwidth from this memory (bytes/s)
system.physmem.bw_total::writebacks          83796902                       # Total bandwidth to/from this memory (bytes/s)
system.physmem.bw_total::switch_cpus0.inst      1502471                       # Total bandwidth to/from this memory (bytes/s)
system.physmem.bw_total::switch_cpus0.data     82465166                       # Total bandwidth to/from this memory (bytes/s)
system.physmem.bw_total::switch_cpus1.inst      1468324                       # Total bandwidth to/from this memory (bytes/s)
system.physmem.bw_total::switch_cpus1.data     85606696                       # Total bandwidth to/from this memory (bytes/s)
system.physmem.bw_total::switch_cpus2.inst      1400030                       # Total bandwidth to/from this memory (bytes/s)
system.physmem.bw_total::switch_cpus2.data     22502917                       # Total bandwidth to/from this memory (bytes/s)
system.physmem.bw_total::switch_cpus3.inst      1400030                       # Total bandwidth to/from this memory (bytes/s)
system.physmem.bw_total::switch_cpus3.data     46918070                       # Total bandwidth to/from this memory (bytes/s)
system.physmem.bw_total::total              327060605                       # Total bandwidth to/from this memory (bytes/s)
system.switch_cpus0.dtb.inst_hits                   0                       # ITB inst hits
system.switch_cpus0.dtb.inst_misses                 0                       # ITB inst misses
system.switch_cpus0.dtb.read_hits                   0                       # DTB read hits
system.switch_cpus0.dtb.read_misses                 0                       # DTB read misses
system.switch_cpus0.dtb.write_hits                  0                       # DTB write hits
system.switch_cpus0.dtb.write_misses                0                       # DTB write misses
system.switch_cpus0.dtb.flush_tlb                   0                       # Number of times complete TLB was flushed
system.switch_cpus0.dtb.flush_tlb_mva               0                       # Number of times TLB was flushed by MVA
system.switch_cpus0.dtb.flush_tlb_mva_asid            0                       # Number of times TLB was flushed by MVA & ASID
system.switch_cpus0.dtb.flush_tlb_asid              0                       # Number of times TLB was flushed by ASID
system.switch_cpus0.dtb.flush_entries               0                       # Number of entries that have been flushed from TLB
system.switch_cpus0.dtb.align_faults                0                       # Number of TLB faults due to alignment restrictions
system.switch_cpus0.dtb.prefetch_faults             0                       # Number of TLB faults due to prefetch
system.switch_cpus0.dtb.domain_faults               0                       # Number of TLB faults due to domain restrictions
system.switch_cpus0.dtb.perms_faults                0                       # Number of TLB faults due to permissions restrictions
system.switch_cpus0.dtb.read_accesses               0                       # DTB read accesses
system.switch_cpus0.dtb.write_accesses              0                       # DTB write accesses
system.switch_cpus0.dtb.inst_accesses               0                       # ITB inst accesses
system.switch_cpus0.dtb.hits                        0                       # DTB hits
system.switch_cpus0.dtb.misses                      0                       # DTB misses
system.switch_cpus0.dtb.accesses                    0                       # DTB accesses
system.switch_cpus0.itb.inst_hits                   0                       # ITB inst hits
system.switch_cpus0.itb.inst_misses                 0                       # ITB inst misses
system.switch_cpus0.itb.read_hits                   0                       # DTB read hits
system.switch_cpus0.itb.read_misses                 0                       # DTB read misses
system.switch_cpus0.itb.write_hits                  0                       # DTB write hits
system.switch_cpus0.itb.write_misses                0                       # DTB write misses
system.switch_cpus0.itb.flush_tlb                   0                       # Number of times complete TLB was flushed
system.switch_cpus0.itb.flush_tlb_mva               0                       # Number of times TLB was flushed by MVA
system.switch_cpus0.itb.flush_tlb_mva_asid            0                       # Number of times TLB was flushed by MVA & ASID
system.switch_cpus0.itb.flush_tlb_asid              0                       # Number of times TLB was flushed by ASID
system.switch_cpus0.itb.flush_entries               0                       # Number of entries that have been flushed from TLB
system.switch_cpus0.itb.align_faults                0                       # Number of TLB faults due to alignment restrictions
system.switch_cpus0.itb.prefetch_faults             0                       # Number of TLB faults due to prefetch
system.switch_cpus0.itb.domain_faults               0                       # Number of TLB faults due to domain restrictions
system.switch_cpus0.itb.perms_faults                0                       # Number of TLB faults due to permissions restrictions
system.switch_cpus0.itb.read_accesses               0                       # DTB read accesses
system.switch_cpus0.itb.write_accesses              0                       # DTB write accesses
system.switch_cpus0.itb.inst_accesses               0                       # ITB inst accesses
system.switch_cpus0.itb.hits                        0                       # DTB hits
system.switch_cpus0.itb.misses                      0                       # DTB misses
system.switch_cpus0.itb.accesses                    0                       # DTB accesses
system.cpu0.workload.num_syscalls                  12                       # Number of system calls
system.switch_cpus0.numCycles                 8989190                       # number of cpu cycles simulated
system.switch_cpus0.numWorkItemsStarted             0                       # number of work items this cpu started
system.switch_cpus0.numWorkItemsCompleted            0                       # number of work items this cpu completed
system.switch_cpus0.BPredUnit.lookups         3085596                       # Number of BP lookups
system.switch_cpus0.BPredUnit.condPredicted      2533001                       # Number of conditional branches predicted
system.switch_cpus0.BPredUnit.condIncorrect       206712                       # Number of conditional branches incorrect
system.switch_cpus0.BPredUnit.BTBLookups      1293265                       # Number of BTB lookups
system.switch_cpus0.BPredUnit.BTBHits         1196047                       # Number of BTB hits
system.switch_cpus0.BPredUnit.BTBCorrect            0                       # Number of correct BTB predictions (this stat may not work properly.
system.switch_cpus0.BPredUnit.usedRAS          300554                       # Number of times the RAS was used to get a target.
system.switch_cpus0.BPredUnit.RASInCorrect         8880                       # Number of incorrect RAS predictions.
system.switch_cpus0.fetch.icacheStallCycles      3323868                       # Number of cycles fetch is stalled on an Icache miss
system.switch_cpus0.fetch.Insts              16797741                       # Number of instructions fetch has processed
system.switch_cpus0.fetch.Branches            3085596                       # Number of branches that fetch encountered
system.switch_cpus0.fetch.predictedBranches      1496601                       # Number of branches that fetch has predicted taken
system.switch_cpus0.fetch.Cycles              3596085                       # Number of cycles fetch has run and was not squashing or blocked
system.switch_cpus0.fetch.SquashCycles        1039192                       # Number of cycles fetch has spent squashing
system.switch_cpus0.fetch.BlockedCycles        892551                       # Number of cycles fetch has spent blocked
system.switch_cpus0.fetch.MiscStallCycles          889                       # Number of cycles fetch has spent waiting on interrupts, or bad addresses, or out of MSHRs
system.switch_cpus0.fetch.PendingTrapStallCycles            6                       # Number of stall cycles due to pending traps
system.switch_cpus0.fetch.IcacheWaitRetryStallCycles           45                       # Number of stall cycles due to full MSHR
system.switch_cpus0.fetch.CacheLines          1634627                       # Number of cache lines fetched
system.switch_cpus0.fetch.IcacheSquashes        91276                       # Number of outstanding Icache misses that were squashed
system.switch_cpus0.fetch.rateDist::samples      8642795                       # Number of instructions fetched each cycle (Total)
system.switch_cpus0.fetch.rateDist::mean     2.383286                       # Number of instructions fetched each cycle (Total)
system.switch_cpus0.fetch.rateDist::stdev     3.303504                       # Number of instructions fetched each cycle (Total)
system.switch_cpus0.fetch.rateDist::underflows            0      0.00%      0.00% # Number of instructions fetched each cycle (Total)
system.switch_cpus0.fetch.rateDist::0         5046710     58.39%     58.39% # Number of instructions fetched each cycle (Total)
system.switch_cpus0.fetch.rateDist::1          354075      4.10%     62.49% # Number of instructions fetched each cycle (Total)
system.switch_cpus0.fetch.rateDist::2          335905      3.89%     66.38% # Number of instructions fetched each cycle (Total)
system.switch_cpus0.fetch.rateDist::3          316443      3.66%     70.04% # Number of instructions fetched each cycle (Total)
system.switch_cpus0.fetch.rateDist::4          261548      3.03%     73.06% # Number of instructions fetched each cycle (Total)
system.switch_cpus0.fetch.rateDist::5          188505      2.18%     75.24% # Number of instructions fetched each cycle (Total)
system.switch_cpus0.fetch.rateDist::6          135846      1.57%     76.82% # Number of instructions fetched each cycle (Total)
system.switch_cpus0.fetch.rateDist::7          210856      2.44%     79.26% # Number of instructions fetched each cycle (Total)
system.switch_cpus0.fetch.rateDist::8         1792907     20.74%    100.00% # Number of instructions fetched each cycle (Total)
system.switch_cpus0.fetch.rateDist::overflows            0      0.00%    100.00% # Number of instructions fetched each cycle (Total)
system.switch_cpus0.fetch.rateDist::min_value            0                       # Number of instructions fetched each cycle (Total)
system.switch_cpus0.fetch.rateDist::max_value            8                       # Number of instructions fetched each cycle (Total)
system.switch_cpus0.fetch.rateDist::total      8642795                       # Number of instructions fetched each cycle (Total)
system.switch_cpus0.fetch.branchRate         0.343256                       # Number of branch fetches per cycle
system.switch_cpus0.fetch.rate               1.868660                       # Number of inst fetches per cycle
system.switch_cpus0.decode.IdleCycles         3479762                       # Number of cycles decode is idle
system.switch_cpus0.decode.BlockedCycles       858679                       # Number of cycles decode is blocked
system.switch_cpus0.decode.RunCycles          3437358                       # Number of cycles decode is running
system.switch_cpus0.decode.UnblockCycles        41502                       # Number of cycles decode is unblocking
system.switch_cpus0.decode.SquashCycles        825491                       # Number of cycles decode is squashing
system.switch_cpus0.decode.BranchResolved       496746                       # Number of times decode resolved a branch
system.switch_cpus0.decode.BranchMispred         3884                       # Number of times decode detected a branch misprediction
system.switch_cpus0.decode.DecodedInsts      19956699                       # Number of instructions handled by decode
system.switch_cpus0.decode.SquashedInsts        10459                       # Number of squashed instructions handled by decode
system.switch_cpus0.rename.SquashCycles        825491                       # Number of cycles rename is squashing
system.switch_cpus0.rename.IdleCycles         3660343                       # Number of cycles rename is idle
system.switch_cpus0.rename.BlockCycles         485898                       # Number of cycles rename is blocking
system.switch_cpus0.rename.serializeStallCycles        91336                       # count of cycles rename stalled for serializing inst
system.switch_cpus0.rename.RunCycles          3291297                       # Number of cycles rename is running
system.switch_cpus0.rename.UnblockCycles       288427                       # Number of cycles rename is unblocking
system.switch_cpus0.rename.RenamedInsts      19366168                       # Number of instructions processed by rename
system.switch_cpus0.rename.ROBFullEvents           50                       # Number of times rename has blocked due to ROB full
system.switch_cpus0.rename.IQFullEvents        156153                       # Number of times rename has blocked due to IQ full
system.switch_cpus0.rename.LSQFullEvents        82078                       # Number of times rename has blocked due to LSQ full
system.switch_cpus0.rename.RenamedOperands     26850210                       # Number of destination operands rename has renamed
system.switch_cpus0.rename.RenameLookups     90212297                       # Number of register rename lookups that rename has made
system.switch_cpus0.rename.int_rename_lookups     90212297                       # Number of integer rename lookups
system.switch_cpus0.rename.CommittedMaps     16795127                       # Number of HB maps that are committed
system.switch_cpus0.rename.UndoneMaps        10055038                       # Number of HB maps that are undone due to squashing
system.switch_cpus0.rename.serializingInsts         3588                       # count of serializing insts renamed
system.switch_cpus0.rename.tempSerializingInsts         1880                       # count of temporary serializing insts renamed
system.switch_cpus0.rename.skidInsts           702579                       # count of insts added to the skid buffer
system.switch_cpus0.memDep0.insertedLoads      1896397                       # Number of loads inserted to the mem dependence unit.
system.switch_cpus0.memDep0.insertedStores      1017778                       # Number of stores inserted to the mem dependence unit.
system.switch_cpus0.memDep0.conflictingLoads        24029                       # Number of conflicting loads.
system.switch_cpus0.memDep0.conflictingStores       427473                       # Number of conflicting stores.
system.switch_cpus0.iq.iqInstsAdded          18049230                       # Number of instructions added to the IQ (excludes non-spec)
system.switch_cpus0.iq.iqNonSpecInstsAdded         3490                       # Number of non-speculative instructions added to the IQ
system.switch_cpus0.iq.iqInstsIssued         14610331                       # Number of instructions issued
system.switch_cpus0.iq.iqSquashedInstsIssued        23808                       # Number of squashed instructions issued
system.switch_cpus0.iq.iqSquashedInstsExamined      5718190                       # Number of squashed instructions iterated over during squash; mainly for profiling
system.switch_cpus0.iq.iqSquashedOperandsExamined     17469185                       # Number of squashed operands that are examined and possibly removed from graph
system.switch_cpus0.iq.iqSquashedNonSpecRemoved          237                       # Number of squashed non-spec instructions that were removed
system.switch_cpus0.iq.issued_per_cycle::samples      8642795                       # Number of insts issued each cycle
system.switch_cpus0.iq.issued_per_cycle::mean     1.690464                       # Number of insts issued each cycle
system.switch_cpus0.iq.issued_per_cycle::stdev     1.835807                       # Number of insts issued each cycle
system.switch_cpus0.iq.issued_per_cycle::underflows            0      0.00%      0.00% # Number of insts issued each cycle
system.switch_cpus0.iq.issued_per_cycle::0      3154101     36.49%     36.49% # Number of insts issued each cycle
system.switch_cpus0.iq.issued_per_cycle::1      1713786     19.83%     56.32% # Number of insts issued each cycle
system.switch_cpus0.iq.issued_per_cycle::2      1364227     15.78%     72.11% # Number of insts issued each cycle
system.switch_cpus0.iq.issued_per_cycle::3       818353      9.47%     81.58% # Number of insts issued each cycle
system.switch_cpus0.iq.issued_per_cycle::4       833329      9.64%     91.22% # Number of insts issued each cycle
system.switch_cpus0.iq.issued_per_cycle::5       379979      4.40%     95.61% # Number of insts issued each cycle
system.switch_cpus0.iq.issued_per_cycle::6       242637      2.81%     98.42% # Number of insts issued each cycle
system.switch_cpus0.iq.issued_per_cycle::7        67065      0.78%     99.20% # Number of insts issued each cycle
system.switch_cpus0.iq.issued_per_cycle::8        69318      0.80%    100.00% # Number of insts issued each cycle
system.switch_cpus0.iq.issued_per_cycle::overflows            0      0.00%    100.00% # Number of insts issued each cycle
system.switch_cpus0.iq.issued_per_cycle::min_value            0                       # Number of insts issued each cycle
system.switch_cpus0.iq.issued_per_cycle::max_value            8                       # Number of insts issued each cycle
system.switch_cpus0.iq.issued_per_cycle::total      8642795                       # Number of insts issued each cycle
system.switch_cpus0.iq.fu_full::No_OpClass            0      0.00%      0.00% # attempts to use FU when none available
system.switch_cpus0.iq.fu_full::IntAlu          63622     58.95%     58.95% # attempts to use FU when none available
system.switch_cpus0.iq.fu_full::IntMult             0      0.00%     58.95% # attempts to use FU when none available
system.switch_cpus0.iq.fu_full::IntDiv              0      0.00%     58.95% # attempts to use FU when none available
system.switch_cpus0.iq.fu_full::FloatAdd            0      0.00%     58.95% # attempts to use FU when none available
system.switch_cpus0.iq.fu_full::FloatCmp            0      0.00%     58.95% # attempts to use FU when none available
system.switch_cpus0.iq.fu_full::FloatCvt            0      0.00%     58.95% # attempts to use FU when none available
system.switch_cpus0.iq.fu_full::FloatMult            0      0.00%     58.95% # attempts to use FU when none available
system.switch_cpus0.iq.fu_full::FloatDiv            0      0.00%     58.95% # attempts to use FU when none available
system.switch_cpus0.iq.fu_full::FloatSqrt            0      0.00%     58.95% # attempts to use FU when none available
system.switch_cpus0.iq.fu_full::SimdAdd             0      0.00%     58.95% # attempts to use FU when none available
system.switch_cpus0.iq.fu_full::SimdAddAcc            0      0.00%     58.95% # attempts to use FU when none available
system.switch_cpus0.iq.fu_full::SimdAlu             0      0.00%     58.95% # attempts to use FU when none available
system.switch_cpus0.iq.fu_full::SimdCmp             0      0.00%     58.95% # attempts to use FU when none available
system.switch_cpus0.iq.fu_full::SimdCvt             0      0.00%     58.95% # attempts to use FU when none available
system.switch_cpus0.iq.fu_full::SimdMisc            0      0.00%     58.95% # attempts to use FU when none available
system.switch_cpus0.iq.fu_full::SimdMult            0      0.00%     58.95% # attempts to use FU when none available
system.switch_cpus0.iq.fu_full::SimdMultAcc            0      0.00%     58.95% # attempts to use FU when none available
system.switch_cpus0.iq.fu_full::SimdShift            0      0.00%     58.95% # attempts to use FU when none available
system.switch_cpus0.iq.fu_full::SimdShiftAcc            0      0.00%     58.95% # attempts to use FU when none available
system.switch_cpus0.iq.fu_full::SimdSqrt            0      0.00%     58.95% # attempts to use FU when none available
system.switch_cpus0.iq.fu_full::SimdFloatAdd            0      0.00%     58.95% # attempts to use FU when none available
system.switch_cpus0.iq.fu_full::SimdFloatAlu            0      0.00%     58.95% # attempts to use FU when none available
system.switch_cpus0.iq.fu_full::SimdFloatCmp            0      0.00%     58.95% # attempts to use FU when none available
system.switch_cpus0.iq.fu_full::SimdFloatCvt            0      0.00%     58.95% # attempts to use FU when none available
system.switch_cpus0.iq.fu_full::SimdFloatDiv            0      0.00%     58.95% # attempts to use FU when none available
system.switch_cpus0.iq.fu_full::SimdFloatMisc            0      0.00%     58.95% # attempts to use FU when none available
system.switch_cpus0.iq.fu_full::SimdFloatMult            0      0.00%     58.95% # attempts to use FU when none available
system.switch_cpus0.iq.fu_full::SimdFloatMultAcc            0      0.00%     58.95% # attempts to use FU when none available
system.switch_cpus0.iq.fu_full::SimdFloatSqrt            0      0.00%     58.95% # attempts to use FU when none available
system.switch_cpus0.iq.fu_full::MemRead         19851     18.39%     77.34% # attempts to use FU when none available
system.switch_cpus0.iq.fu_full::MemWrite        24450     22.66%    100.00% # attempts to use FU when none available
system.switch_cpus0.iq.fu_full::IprAccess            0      0.00%    100.00% # attempts to use FU when none available
system.switch_cpus0.iq.fu_full::InstPrefetch            0      0.00%    100.00% # attempts to use FU when none available
system.switch_cpus0.iq.FU_type_0::No_OpClass            0      0.00%      0.00% # Type of FU issued
system.switch_cpus0.iq.FU_type_0::IntAlu     12012594     82.22%     82.22% # Type of FU issued
system.switch_cpus0.iq.FU_type_0::IntMult       200479      1.37%     83.59% # Type of FU issued
system.switch_cpus0.iq.FU_type_0::IntDiv            0      0.00%     83.59% # Type of FU issued
system.switch_cpus0.iq.FU_type_0::FloatAdd            0      0.00%     83.59% # Type of FU issued
system.switch_cpus0.iq.FU_type_0::FloatCmp            0      0.00%     83.59% # Type of FU issued
system.switch_cpus0.iq.FU_type_0::FloatCvt            0      0.00%     83.59% # Type of FU issued
system.switch_cpus0.iq.FU_type_0::FloatMult            0      0.00%     83.59% # Type of FU issued
system.switch_cpus0.iq.FU_type_0::FloatDiv            0      0.00%     83.59% # Type of FU issued
system.switch_cpus0.iq.FU_type_0::FloatSqrt            0      0.00%     83.59% # Type of FU issued
system.switch_cpus0.iq.FU_type_0::SimdAdd            0      0.00%     83.59% # Type of FU issued
system.switch_cpus0.iq.FU_type_0::SimdAddAcc            0      0.00%     83.59% # Type of FU issued
system.switch_cpus0.iq.FU_type_0::SimdAlu            0      0.00%     83.59% # Type of FU issued
system.switch_cpus0.iq.FU_type_0::SimdCmp            0      0.00%     83.59% # Type of FU issued
system.switch_cpus0.iq.FU_type_0::SimdCvt            0      0.00%     83.59% # Type of FU issued
system.switch_cpus0.iq.FU_type_0::SimdMisc            0      0.00%     83.59% # Type of FU issued
system.switch_cpus0.iq.FU_type_0::SimdMult            0      0.00%     83.59% # Type of FU issued
system.switch_cpus0.iq.FU_type_0::SimdMultAcc            0      0.00%     83.59% # Type of FU issued
system.switch_cpus0.iq.FU_type_0::SimdShift            0      0.00%     83.59% # Type of FU issued
system.switch_cpus0.iq.FU_type_0::SimdShiftAcc            0      0.00%     83.59% # Type of FU issued
system.switch_cpus0.iq.FU_type_0::SimdSqrt            0      0.00%     83.59% # Type of FU issued
system.switch_cpus0.iq.FU_type_0::SimdFloatAdd            0      0.00%     83.59% # Type of FU issued
system.switch_cpus0.iq.FU_type_0::SimdFloatAlu            0      0.00%     83.59% # Type of FU issued
system.switch_cpus0.iq.FU_type_0::SimdFloatCmp            0      0.00%     83.59% # Type of FU issued
system.switch_cpus0.iq.FU_type_0::SimdFloatCvt            0      0.00%     83.59% # Type of FU issued
system.switch_cpus0.iq.FU_type_0::SimdFloatDiv            0      0.00%     83.59% # Type of FU issued
system.switch_cpus0.iq.FU_type_0::SimdFloatMisc         1594      0.01%     83.60% # Type of FU issued
system.switch_cpus0.iq.FU_type_0::SimdFloatMult            0      0.00%     83.60% # Type of FU issued
system.switch_cpus0.iq.FU_type_0::SimdFloatMultAcc            0      0.00%     83.60% # Type of FU issued
system.switch_cpus0.iq.FU_type_0::SimdFloatSqrt            0      0.00%     83.60% # Type of FU issued
system.switch_cpus0.iq.FU_type_0::MemRead      1547663     10.59%     94.20% # Type of FU issued
system.switch_cpus0.iq.FU_type_0::MemWrite       848001      5.80%    100.00% # Type of FU issued
system.switch_cpus0.iq.FU_type_0::IprAccess            0      0.00%    100.00% # Type of FU issued
system.switch_cpus0.iq.FU_type_0::InstPrefetch            0      0.00%    100.00% # Type of FU issued
system.switch_cpus0.iq.FU_type_0::total      14610331                       # Type of FU issued
system.switch_cpus0.iq.rate                  1.625322                       # Inst issue rate
system.switch_cpus0.iq.fu_busy_cnt             107923                       # FU busy when requested
system.switch_cpus0.iq.fu_busy_rate          0.007387                       # FU busy rate (busy events/executed inst)
system.switch_cpus0.iq.int_inst_queue_reads     37995187                       # Number of integer instruction queue reads
system.switch_cpus0.iq.int_inst_queue_writes     23771137                       # Number of integer instruction queue writes
system.switch_cpus0.iq.int_inst_queue_wakeup_accesses     14238876                       # Number of integer instruction queue wakeup accesses
system.switch_cpus0.iq.fp_inst_queue_reads            0                       # Number of floating instruction queue reads
system.switch_cpus0.iq.fp_inst_queue_writes            0                       # Number of floating instruction queue writes
system.switch_cpus0.iq.fp_inst_queue_wakeup_accesses            0                       # Number of floating instruction queue wakeup accesses
system.switch_cpus0.iq.int_alu_accesses      14718254                       # Number of integer alu accesses
system.switch_cpus0.iq.fp_alu_accesses              0                       # Number of floating point alu accesses
system.switch_cpus0.iew.lsq.thread0.forwLoads        45721                       # Number of loads that had data forwarded from stores
system.switch_cpus0.iew.lsq.thread0.invAddrLoads            0                       # Number of loads ignored due to an invalid address
system.switch_cpus0.iew.lsq.thread0.squashedLoads       664035                       # Number of loads squashed
system.switch_cpus0.iew.lsq.thread0.ignoredResponses          497                       # Number of memory responses ignored because the instruction is squashed
system.switch_cpus0.iew.lsq.thread0.memOrderViolation          233                       # Number of memory ordering violations
system.switch_cpus0.iew.lsq.thread0.squashedStores       235808                       # Number of stores squashed
system.switch_cpus0.iew.lsq.thread0.invAddrSwpfs            0                       # Number of software prefetches ignored due to an invalid address
system.switch_cpus0.iew.lsq.thread0.blockedLoads            0                       # Number of blocked loads due to partial load-store forwarding
system.switch_cpus0.iew.lsq.thread0.rescheduledLoads           80                       # Number of loads that were rescheduled
system.switch_cpus0.iew.lsq.thread0.cacheBlocked            0                       # Number of times an access to memory failed due to the cache being blocked
system.switch_cpus0.iew.iewIdleCycles               0                       # Number of cycles IEW is idle
system.switch_cpus0.iew.iewSquashCycles        825491                       # Number of cycles IEW is squashing
system.switch_cpus0.iew.iewBlockCycles         395755                       # Number of cycles IEW is blocking
system.switch_cpus0.iew.iewUnblockCycles        14305                       # Number of cycles IEW is unblocking
system.switch_cpus0.iew.iewDispatchedInsts     18052721                       # Number of instructions dispatched to IQ
system.switch_cpus0.iew.iewDispSquashedInsts        82341                       # Number of squashed instructions skipped by dispatch
system.switch_cpus0.iew.iewDispLoadInsts      1896397                       # Number of dispatched load instructions
system.switch_cpus0.iew.iewDispStoreInsts      1017778                       # Number of dispatched store instructions
system.switch_cpus0.iew.iewDispNonSpecInsts         1867                       # Number of dispatched non-speculative instructions
system.switch_cpus0.iew.iewIQFullEvents          9793                       # Number of times the IQ has become full, causing a stall
system.switch_cpus0.iew.iewLSQFullEvents         1455                       # Number of times the LSQ has become full, causing a stall
system.switch_cpus0.iew.memOrderViolationEvents          233                       # Number of memory order violations
system.switch_cpus0.iew.predictedTakenIncorrect       122997                       # Number of branches that were predicted taken incorrectly
system.switch_cpus0.iew.predictedNotTakenIncorrect       115215                       # Number of branches that were predicted not taken incorrectly
system.switch_cpus0.iew.branchMispredicts       238212                       # Number of branch mispredicts detected at execute
system.switch_cpus0.iew.iewExecutedInsts     14369972                       # Number of executed instructions
system.switch_cpus0.iew.iewExecLoadInsts      1469413                       # Number of load instructions executed
system.switch_cpus0.iew.iewExecSquashedInsts       240358                       # Number of squashed instructions skipped in execute
system.switch_cpus0.iew.exec_swp                    0                       # number of swp insts executed
system.switch_cpus0.iew.exec_nop                    1                       # number of nop insts executed
system.switch_cpus0.iew.exec_refs             2303832                       # number of memory reference insts executed
system.switch_cpus0.iew.exec_branches         2020611                       # Number of branches executed
system.switch_cpus0.iew.exec_stores            834419                       # Number of stores executed
system.switch_cpus0.iew.exec_rate            1.598584                       # Inst execution rate
system.switch_cpus0.iew.wb_sent              14249676                       # cumulative count of insts sent to commit
system.switch_cpus0.iew.wb_count             14238876                       # cumulative count of insts written-back
system.switch_cpus0.iew.wb_producers          9200787                       # num instructions producing a value
system.switch_cpus0.iew.wb_consumers         24884456                       # num instructions consuming a value
system.switch_cpus0.iew.wb_penalized                0                       # number of instrctions required to write to 'other' IQ
system.switch_cpus0.iew.wb_rate              1.584000                       # insts written-back per cycle
system.switch_cpus0.iew.wb_fanout            0.369740                       # average fanout of values written-back
system.switch_cpus0.iew.wb_penalized_rate            0                       # fraction of instructions written-back that wrote to 'other' IQ
system.switch_cpus0.commit.commitCommittedInsts     10000000                       # The number of committed instructions
system.switch_cpus0.commit.commitCommittedOps     12239191                       # The number of committed instructions
system.switch_cpus0.commit.commitSquashedInsts      5814377                       # The number of squashed insts skipped by commit
system.switch_cpus0.commit.commitNonSpecStalls         3253                       # The number of times commit has been forced to stall to communicate backwards
system.switch_cpus0.commit.branchMispredicts       205813                       # The number of times a branch was mispredicted
system.switch_cpus0.commit.committed_per_cycle::samples      7817304                       # Number of insts commited each cycle
system.switch_cpus0.commit.committed_per_cycle::mean     1.565654                       # Number of insts commited each cycle
system.switch_cpus0.commit.committed_per_cycle::stdev     2.103547                       # Number of insts commited each cycle
system.switch_cpus0.commit.committed_per_cycle::underflows            0      0.00%      0.00% # Number of insts commited each cycle
system.switch_cpus0.commit.committed_per_cycle::0      3222621     41.22%     41.22% # Number of insts commited each cycle
system.switch_cpus0.commit.committed_per_cycle::1      2052445     26.26%     67.48% # Number of insts commited each cycle
system.switch_cpus0.commit.committed_per_cycle::2       851759     10.90%     78.38% # Number of insts commited each cycle
system.switch_cpus0.commit.committed_per_cycle::3       432427      5.53%     83.91% # Number of insts commited each cycle
system.switch_cpus0.commit.committed_per_cycle::4       449039      5.74%     89.65% # Number of insts commited each cycle
system.switch_cpus0.commit.committed_per_cycle::5       227368      2.91%     92.56% # Number of insts commited each cycle
system.switch_cpus0.commit.committed_per_cycle::6       155454      1.99%     94.55% # Number of insts commited each cycle
system.switch_cpus0.commit.committed_per_cycle::7        89301      1.14%     95.69% # Number of insts commited each cycle
system.switch_cpus0.commit.committed_per_cycle::8       336890      4.31%    100.00% # Number of insts commited each cycle
system.switch_cpus0.commit.committed_per_cycle::overflows            0      0.00%    100.00% # Number of insts commited each cycle
system.switch_cpus0.commit.committed_per_cycle::min_value            0                       # Number of insts commited each cycle
system.switch_cpus0.commit.committed_per_cycle::max_value            8                       # Number of insts commited each cycle
system.switch_cpus0.commit.committed_per_cycle::total      7817304                       # Number of insts commited each cycle
system.switch_cpus0.commit.committedInsts     10000000                       # Number of instructions committed
system.switch_cpus0.commit.committedOps      12239191                       # Number of ops (including micro ops) committed
system.switch_cpus0.commit.swp_count                0                       # Number of s/w prefetches committed
system.switch_cpus0.commit.refs               2014329                       # Number of memory references committed
system.switch_cpus0.commit.loads              1232359                       # Number of loads committed
system.switch_cpus0.commit.membars               1618                       # Number of memory barriers committed
system.switch_cpus0.commit.branches           1757708                       # Number of branches committed
system.switch_cpus0.commit.fp_insts                 0                       # Number of committed floating point instructions.
system.switch_cpus0.commit.int_insts         11009334                       # Number of committed integer instructions.
system.switch_cpus0.commit.function_calls       240449                       # Number of function calls committed.
system.switch_cpus0.commit.bw_lim_events       336890                       # number cycles where commit BW limit reached
system.switch_cpus0.commit.bw_limited               0                       # number of insts not committed due to BW limits
system.switch_cpus0.rob.rob_reads            25533826                       # The number of ROB reads
system.switch_cpus0.rob.rob_writes           36933191                       # The number of ROB writes
system.switch_cpus0.timesIdled                   4269                       # Number of times that the entire CPU went into an idle state and unscheduled itself
system.switch_cpus0.idleCycles                 346395                       # Total number of cycles that the CPU has spent unscheduled due to idling
system.switch_cpus0.committedInsts           10000000                       # Number of Instructions Simulated
system.switch_cpus0.committedOps             12239191                       # Number of Ops (including micro ops) Simulated
system.switch_cpus0.committedInsts_total     10000000                       # Number of Instructions Simulated
system.switch_cpus0.cpi                      0.898919                       # CPI: Cycles Per Instruction
system.switch_cpus0.cpi_total                0.898919                       # CPI: Total CPI of All Threads
system.switch_cpus0.ipc                      1.112447                       # IPC: Instructions Per Cycle
system.switch_cpus0.ipc_total                1.112447                       # IPC: Total IPC of All Threads
system.switch_cpus0.int_regfile_reads        64960844                       # number of integer regfile reads
system.switch_cpus0.int_regfile_writes       19480772                       # number of integer regfile writes
system.switch_cpus0.misc_regfile_reads       18737558                       # number of misc regfile reads
system.switch_cpus0.misc_regfile_writes          3246                       # number of misc regfile writes
system.switch_cpus1.dtb.inst_hits                   0                       # ITB inst hits
system.switch_cpus1.dtb.inst_misses                 0                       # ITB inst misses
system.switch_cpus1.dtb.read_hits                   0                       # DTB read hits
system.switch_cpus1.dtb.read_misses                 0                       # DTB read misses
system.switch_cpus1.dtb.write_hits                  0                       # DTB write hits
system.switch_cpus1.dtb.write_misses                0                       # DTB write misses
system.switch_cpus1.dtb.flush_tlb                   0                       # Number of times complete TLB was flushed
system.switch_cpus1.dtb.flush_tlb_mva               0                       # Number of times TLB was flushed by MVA
system.switch_cpus1.dtb.flush_tlb_mva_asid            0                       # Number of times TLB was flushed by MVA & ASID
system.switch_cpus1.dtb.flush_tlb_asid              0                       # Number of times TLB was flushed by ASID
system.switch_cpus1.dtb.flush_entries               0                       # Number of entries that have been flushed from TLB
system.switch_cpus1.dtb.align_faults                0                       # Number of TLB faults due to alignment restrictions
system.switch_cpus1.dtb.prefetch_faults             0                       # Number of TLB faults due to prefetch
system.switch_cpus1.dtb.domain_faults               0                       # Number of TLB faults due to domain restrictions
system.switch_cpus1.dtb.perms_faults                0                       # Number of TLB faults due to permissions restrictions
system.switch_cpus1.dtb.read_accesses               0                       # DTB read accesses
system.switch_cpus1.dtb.write_accesses              0                       # DTB write accesses
system.switch_cpus1.dtb.inst_accesses               0                       # ITB inst accesses
system.switch_cpus1.dtb.hits                        0                       # DTB hits
system.switch_cpus1.dtb.misses                      0                       # DTB misses
system.switch_cpus1.dtb.accesses                    0                       # DTB accesses
system.switch_cpus1.itb.inst_hits                   0                       # ITB inst hits
system.switch_cpus1.itb.inst_misses                 0                       # ITB inst misses
system.switch_cpus1.itb.read_hits                   0                       # DTB read hits
system.switch_cpus1.itb.read_misses                 0                       # DTB read misses
system.switch_cpus1.itb.write_hits                  0                       # DTB write hits
system.switch_cpus1.itb.write_misses                0                       # DTB write misses
system.switch_cpus1.itb.flush_tlb                   0                       # Number of times complete TLB was flushed
system.switch_cpus1.itb.flush_tlb_mva               0                       # Number of times TLB was flushed by MVA
system.switch_cpus1.itb.flush_tlb_mva_asid            0                       # Number of times TLB was flushed by MVA & ASID
system.switch_cpus1.itb.flush_tlb_asid              0                       # Number of times TLB was flushed by ASID
system.switch_cpus1.itb.flush_entries               0                       # Number of entries that have been flushed from TLB
system.switch_cpus1.itb.align_faults                0                       # Number of TLB faults due to alignment restrictions
system.switch_cpus1.itb.prefetch_faults             0                       # Number of TLB faults due to prefetch
system.switch_cpus1.itb.domain_faults               0                       # Number of TLB faults due to domain restrictions
system.switch_cpus1.itb.perms_faults                0                       # Number of TLB faults due to permissions restrictions
system.switch_cpus1.itb.read_accesses               0                       # DTB read accesses
system.switch_cpus1.itb.write_accesses              0                       # DTB write accesses
system.switch_cpus1.itb.inst_accesses               0                       # ITB inst accesses
system.switch_cpus1.itb.hits                        0                       # DTB hits
system.switch_cpus1.itb.misses                      0                       # DTB misses
system.switch_cpus1.itb.accesses                    0                       # DTB accesses
system.cpu1.workload.num_syscalls                  13                       # Number of system calls
system.switch_cpus1.numCycles                 8989190                       # number of cpu cycles simulated
system.switch_cpus1.numWorkItemsStarted             0                       # number of work items this cpu started
system.switch_cpus1.numWorkItemsCompleted            0                       # number of work items this cpu completed
system.switch_cpus1.BPredUnit.lookups         3100843                       # Number of BP lookups
system.switch_cpus1.BPredUnit.condPredicted      2516406                       # Number of conditional branches predicted
system.switch_cpus1.BPredUnit.condIncorrect       211274                       # Number of conditional branches incorrect
system.switch_cpus1.BPredUnit.BTBLookups      1273674                       # Number of BTB lookups
system.switch_cpus1.BPredUnit.BTBHits         1213799                       # Number of BTB hits
system.switch_cpus1.BPredUnit.BTBCorrect            0                       # Number of correct BTB predictions (this stat may not work properly.
system.switch_cpus1.BPredUnit.usedRAS          330230                       # Number of times the RAS was used to get a target.
system.switch_cpus1.BPredUnit.RASInCorrect         9124                       # Number of incorrect RAS predictions.
system.switch_cpus1.fetch.icacheStallCycles      3242654                       # Number of cycles fetch is stalled on an Icache miss
system.switch_cpus1.fetch.Insts              17082680                       # Number of instructions fetch has processed
system.switch_cpus1.fetch.Branches            3100843                       # Number of branches that fetch encountered
system.switch_cpus1.fetch.predictedBranches      1544029                       # Number of branches that fetch has predicted taken
system.switch_cpus1.fetch.Cycles              3605281                       # Number of cycles fetch has run and was not squashing or blocked
system.switch_cpus1.fetch.SquashCycles        1113033                       # Number of cycles fetch has spent squashing
system.switch_cpus1.fetch.BlockedCycles        741259                       # Number of cycles fetch has spent blocked
system.switch_cpus1.fetch.MiscStallCycles         1031                       # Number of cycles fetch has spent waiting on interrupts, or bad addresses, or out of MSHRs
system.switch_cpus1.fetch.PendingTrapStallCycles           30                       # Number of stall cycles due to pending traps
system.switch_cpus1.fetch.IcacheWaitRetryStallCycles           56                       # Number of stall cycles due to full MSHR
system.switch_cpus1.fetch.CacheLines          1595654                       # Number of cache lines fetched
system.switch_cpus1.fetch.IcacheSquashes        96976                       # Number of outstanding Icache misses that were squashed
system.switch_cpus1.fetch.rateDist::samples      8487175                       # Number of instructions fetched each cycle (Total)
system.switch_cpus1.fetch.rateDist::mean     2.482481                       # Number of instructions fetched each cycle (Total)
system.switch_cpus1.fetch.rateDist::stdev     3.313755                       # Number of instructions fetched each cycle (Total)
system.switch_cpus1.fetch.rateDist::underflows            0      0.00%      0.00% # Number of instructions fetched each cycle (Total)
system.switch_cpus1.fetch.rateDist::0         4881894     57.52%     57.52% # Number of instructions fetched each cycle (Total)
system.switch_cpus1.fetch.rateDist::1          226928      2.67%     60.19% # Number of instructions fetched each cycle (Total)
system.switch_cpus1.fetch.rateDist::2          255605      3.01%     63.21% # Number of instructions fetched each cycle (Total)
system.switch_cpus1.fetch.rateDist::3          466318      5.49%     68.70% # Number of instructions fetched each cycle (Total)
system.switch_cpus1.fetch.rateDist::4          211456      2.49%     71.19% # Number of instructions fetched each cycle (Total)
system.switch_cpus1.fetch.rateDist::5          323623      3.81%     75.01% # Number of instructions fetched each cycle (Total)
system.switch_cpus1.fetch.rateDist::6          176847      2.08%     77.09% # Number of instructions fetched each cycle (Total)
system.switch_cpus1.fetch.rateDist::7          148893      1.75%     78.84% # Number of instructions fetched each cycle (Total)
system.switch_cpus1.fetch.rateDist::8         1795611     21.16%    100.00% # Number of instructions fetched each cycle (Total)
system.switch_cpus1.fetch.rateDist::overflows            0      0.00%    100.00% # Number of instructions fetched each cycle (Total)
system.switch_cpus1.fetch.rateDist::min_value            0                       # Number of instructions fetched each cycle (Total)
system.switch_cpus1.fetch.rateDist::max_value            8                       # Number of instructions fetched each cycle (Total)
system.switch_cpus1.fetch.rateDist::total      8487175                       # Number of instructions fetched each cycle (Total)
system.switch_cpus1.fetch.branchRate         0.344952                       # Number of branch fetches per cycle
system.switch_cpus1.fetch.rate               1.900358                       # Number of inst fetches per cycle
system.switch_cpus1.decode.IdleCycles         3423699                       # Number of cycles decode is idle
system.switch_cpus1.decode.BlockedCycles       693936                       # Number of cycles decode is blocked
system.switch_cpus1.decode.RunCycles          3439698                       # Number of cycles decode is running
system.switch_cpus1.decode.UnblockCycles        34999                       # Number of cycles decode is unblocking
system.switch_cpus1.decode.SquashCycles        894840                       # Number of cycles decode is squashing
system.switch_cpus1.decode.BranchResolved       526286                       # Number of times decode resolved a branch
system.switch_cpus1.decode.BranchMispred         3209                       # Number of times decode detected a branch misprediction
system.switch_cpus1.decode.DecodedInsts      20334311                       # Number of instructions handled by decode
system.switch_cpus1.decode.SquashedInsts         4743                       # Number of squashed instructions handled by decode
system.switch_cpus1.rename.SquashCycles        894840                       # Number of cycles rename is squashing
system.switch_cpus1.rename.IdleCycles         3611315                       # Number of cycles rename is idle
system.switch_cpus1.rename.BlockCycles         146093                       # Number of cycles rename is blocking
system.switch_cpus1.rename.serializeStallCycles       290168                       # count of cycles rename stalled for serializing inst
system.switch_cpus1.rename.RunCycles          3282932                       # Number of cycles rename is running
system.switch_cpus1.rename.UnblockCycles       261820                       # Number of cycles rename is unblocking
system.switch_cpus1.rename.RenamedInsts      19533911                       # Number of instructions processed by rename
system.switch_cpus1.rename.ROBFullEvents         4144                       # Number of times rename has blocked due to ROB full
system.switch_cpus1.rename.IQFullEvents        141168                       # Number of times rename has blocked due to IQ full
system.switch_cpus1.rename.LSQFullEvents        76092                       # Number of times rename has blocked due to LSQ full
system.switch_cpus1.rename.FullRegisterEvents         1021                       # Number of times there has been no free registers
system.switch_cpus1.rename.RenamedOperands     27355196                       # Number of destination operands rename has renamed
system.switch_cpus1.rename.RenameLookups     91002523                       # Number of register rename lookups that rename has made
system.switch_cpus1.rename.int_rename_lookups     91002523                       # Number of integer rename lookups
system.switch_cpus1.rename.CommittedMaps     16798541                       # Number of HB maps that are committed
system.switch_cpus1.rename.UndoneMaps        10556616                       # Number of HB maps that are undone due to squashing
system.switch_cpus1.rename.serializingInsts         4124                       # count of serializing insts renamed
system.switch_cpus1.rename.tempSerializingInsts         2488                       # count of temporary serializing insts renamed
system.switch_cpus1.rename.skidInsts           670988                       # count of insts added to the skid buffer
system.switch_cpus1.memDep0.insertedLoads      1827432                       # Number of loads inserted to the mem dependence unit.
system.switch_cpus1.memDep0.insertedStores       930769                       # Number of stores inserted to the mem dependence unit.
system.switch_cpus1.memDep0.conflictingLoads        13482                       # Number of conflicting loads.
system.switch_cpus1.memDep0.conflictingStores       276723                       # Number of conflicting stores.
system.switch_cpus1.iq.iqInstsAdded          18351498                       # Number of instructions added to the IQ (excludes non-spec)
system.switch_cpus1.iq.iqNonSpecInstsAdded         4129                       # Number of non-speculative instructions added to the IQ
system.switch_cpus1.iq.iqInstsIssued         14763985                       # Number of instructions issued
system.switch_cpus1.iq.iqSquashedInstsIssued        29798                       # Number of squashed instructions issued
system.switch_cpus1.iq.iqSquashedInstsExamined      6216366                       # Number of squashed instructions iterated over during squash; mainly for profiling
system.switch_cpus1.iq.iqSquashedOperandsExamined     18622218                       # Number of squashed operands that are examined and possibly removed from graph
system.switch_cpus1.iq.iqSquashedNonSpecRemoved          806                       # Number of squashed non-spec instructions that were removed
system.switch_cpus1.iq.issued_per_cycle::samples      8487175                       # Number of insts issued each cycle
system.switch_cpus1.iq.issued_per_cycle::mean     1.739564                       # Number of insts issued each cycle
system.switch_cpus1.iq.issued_per_cycle::stdev     1.921141                       # Number of insts issued each cycle
system.switch_cpus1.iq.issued_per_cycle::underflows            0      0.00%      0.00% # Number of insts issued each cycle
system.switch_cpus1.iq.issued_per_cycle::0      3084220     36.34%     36.34% # Number of insts issued each cycle
system.switch_cpus1.iq.issued_per_cycle::1      1768771     20.84%     57.18% # Number of insts issued each cycle
system.switch_cpus1.iq.issued_per_cycle::2      1192400     14.05%     71.23% # Number of insts issued each cycle
system.switch_cpus1.iq.issued_per_cycle::3       831887      9.80%     81.03% # Number of insts issued each cycle
system.switch_cpus1.iq.issued_per_cycle::4       701209      8.26%     89.29% # Number of insts issued each cycle
system.switch_cpus1.iq.issued_per_cycle::5       375762      4.43%     93.72% # Number of insts issued each cycle
system.switch_cpus1.iq.issued_per_cycle::6       372858      4.39%     98.11% # Number of insts issued each cycle
system.switch_cpus1.iq.issued_per_cycle::7        86585      1.02%     99.13% # Number of insts issued each cycle
system.switch_cpus1.iq.issued_per_cycle::8        73483      0.87%    100.00% # Number of insts issued each cycle
system.switch_cpus1.iq.issued_per_cycle::overflows            0      0.00%    100.00% # Number of insts issued each cycle
system.switch_cpus1.iq.issued_per_cycle::min_value            0                       # Number of insts issued each cycle
system.switch_cpus1.iq.issued_per_cycle::max_value            8                       # Number of insts issued each cycle
system.switch_cpus1.iq.issued_per_cycle::total      8487175                       # Number of insts issued each cycle
system.switch_cpus1.iq.fu_full::No_OpClass            0      0.00%      0.00% # attempts to use FU when none available
system.switch_cpus1.iq.fu_full::IntAlu         107315     76.29%     76.29% # attempts to use FU when none available
system.switch_cpus1.iq.fu_full::IntMult             3      0.00%     76.30% # attempts to use FU when none available
system.switch_cpus1.iq.fu_full::IntDiv              0      0.00%     76.30% # attempts to use FU when none available
system.switch_cpus1.iq.fu_full::FloatAdd            0      0.00%     76.30% # attempts to use FU when none available
system.switch_cpus1.iq.fu_full::FloatCmp            0      0.00%     76.30% # attempts to use FU when none available
system.switch_cpus1.iq.fu_full::FloatCvt            0      0.00%     76.30% # attempts to use FU when none available
system.switch_cpus1.iq.fu_full::FloatMult            0      0.00%     76.30% # attempts to use FU when none available
system.switch_cpus1.iq.fu_full::FloatDiv            0      0.00%     76.30% # attempts to use FU when none available
system.switch_cpus1.iq.fu_full::FloatSqrt            0      0.00%     76.30% # attempts to use FU when none available
system.switch_cpus1.iq.fu_full::SimdAdd             0      0.00%     76.30% # attempts to use FU when none available
system.switch_cpus1.iq.fu_full::SimdAddAcc            0      0.00%     76.30% # attempts to use FU when none available
system.switch_cpus1.iq.fu_full::SimdAlu             0      0.00%     76.30% # attempts to use FU when none available
system.switch_cpus1.iq.fu_full::SimdCmp             0      0.00%     76.30% # attempts to use FU when none available
system.switch_cpus1.iq.fu_full::SimdCvt             0      0.00%     76.30% # attempts to use FU when none available
system.switch_cpus1.iq.fu_full::SimdMisc            0      0.00%     76.30% # attempts to use FU when none available
system.switch_cpus1.iq.fu_full::SimdMult            0      0.00%     76.30% # attempts to use FU when none available
system.switch_cpus1.iq.fu_full::SimdMultAcc            0      0.00%     76.30% # attempts to use FU when none available
system.switch_cpus1.iq.fu_full::SimdShift            0      0.00%     76.30% # attempts to use FU when none available
system.switch_cpus1.iq.fu_full::SimdShiftAcc            0      0.00%     76.30% # attempts to use FU when none available
system.switch_cpus1.iq.fu_full::SimdSqrt            0      0.00%     76.30% # attempts to use FU when none available
system.switch_cpus1.iq.fu_full::SimdFloatAdd            0      0.00%     76.30% # attempts to use FU when none available
system.switch_cpus1.iq.fu_full::SimdFloatAlu            0      0.00%     76.30% # attempts to use FU when none available
system.switch_cpus1.iq.fu_full::SimdFloatCmp            0      0.00%     76.30% # attempts to use FU when none available
system.switch_cpus1.iq.fu_full::SimdFloatCvt            0      0.00%     76.30% # attempts to use FU when none available
system.switch_cpus1.iq.fu_full::SimdFloatDiv            0      0.00%     76.30% # attempts to use FU when none available
system.switch_cpus1.iq.fu_full::SimdFloatMisc            0      0.00%     76.30% # attempts to use FU when none available
system.switch_cpus1.iq.fu_full::SimdFloatMult            0      0.00%     76.30% # attempts to use FU when none available
system.switch_cpus1.iq.fu_full::SimdFloatMultAcc            0      0.00%     76.30% # attempts to use FU when none available
system.switch_cpus1.iq.fu_full::SimdFloatSqrt            0      0.00%     76.30% # attempts to use FU when none available
system.switch_cpus1.iq.fu_full::MemRead         15446     10.98%     87.28% # attempts to use FU when none available
system.switch_cpus1.iq.fu_full::MemWrite        17897     12.72%    100.00% # attempts to use FU when none available
system.switch_cpus1.iq.fu_full::IprAccess            0      0.00%    100.00% # attempts to use FU when none available
system.switch_cpus1.iq.fu_full::InstPrefetch            0      0.00%    100.00% # attempts to use FU when none available
system.switch_cpus1.iq.FU_type_0::No_OpClass            0      0.00%      0.00% # Type of FU issued
system.switch_cpus1.iq.FU_type_0::IntAlu     12308044     83.37%     83.37% # Type of FU issued
system.switch_cpus1.iq.FU_type_0::IntMult       208607      1.41%     84.78% # Type of FU issued
system.switch_cpus1.iq.FU_type_0::IntDiv            0      0.00%     84.78% # Type of FU issued
system.switch_cpus1.iq.FU_type_0::FloatAdd            0      0.00%     84.78% # Type of FU issued
system.switch_cpus1.iq.FU_type_0::FloatCmp            0      0.00%     84.78% # Type of FU issued
system.switch_cpus1.iq.FU_type_0::FloatCvt            0      0.00%     84.78% # Type of FU issued
system.switch_cpus1.iq.FU_type_0::FloatMult            0      0.00%     84.78% # Type of FU issued
system.switch_cpus1.iq.FU_type_0::FloatDiv            0      0.00%     84.78% # Type of FU issued
system.switch_cpus1.iq.FU_type_0::FloatSqrt            0      0.00%     84.78% # Type of FU issued
system.switch_cpus1.iq.FU_type_0::SimdAdd            0      0.00%     84.78% # Type of FU issued
system.switch_cpus1.iq.FU_type_0::SimdAddAcc            0      0.00%     84.78% # Type of FU issued
system.switch_cpus1.iq.FU_type_0::SimdAlu            0      0.00%     84.78% # Type of FU issued
system.switch_cpus1.iq.FU_type_0::SimdCmp            0      0.00%     84.78% # Type of FU issued
system.switch_cpus1.iq.FU_type_0::SimdCvt            0      0.00%     84.78% # Type of FU issued
system.switch_cpus1.iq.FU_type_0::SimdMisc            0      0.00%     84.78% # Type of FU issued
system.switch_cpus1.iq.FU_type_0::SimdMult            0      0.00%     84.78% # Type of FU issued
system.switch_cpus1.iq.FU_type_0::SimdMultAcc            0      0.00%     84.78% # Type of FU issued
system.switch_cpus1.iq.FU_type_0::SimdShift            0      0.00%     84.78% # Type of FU issued
system.switch_cpus1.iq.FU_type_0::SimdShiftAcc            0      0.00%     84.78% # Type of FU issued
system.switch_cpus1.iq.FU_type_0::SimdSqrt            0      0.00%     84.78% # Type of FU issued
system.switch_cpus1.iq.FU_type_0::SimdFloatAdd            0      0.00%     84.78% # Type of FU issued
system.switch_cpus1.iq.FU_type_0::SimdFloatAlu            0      0.00%     84.78% # Type of FU issued
system.switch_cpus1.iq.FU_type_0::SimdFloatCmp            0      0.00%     84.78% # Type of FU issued
system.switch_cpus1.iq.FU_type_0::SimdFloatCvt            0      0.00%     84.78% # Type of FU issued
system.switch_cpus1.iq.FU_type_0::SimdFloatDiv            0      0.00%     84.78% # Type of FU issued
system.switch_cpus1.iq.FU_type_0::SimdFloatMisc         1625      0.01%     84.79% # Type of FU issued
system.switch_cpus1.iq.FU_type_0::SimdFloatMult            0      0.00%     84.79% # Type of FU issued
system.switch_cpus1.iq.FU_type_0::SimdFloatMultAcc            0      0.00%     84.79% # Type of FU issued
system.switch_cpus1.iq.FU_type_0::SimdFloatSqrt            0      0.00%     84.79% # Type of FU issued
system.switch_cpus1.iq.FU_type_0::MemRead      1471002      9.96%     94.75% # Type of FU issued
system.switch_cpus1.iq.FU_type_0::MemWrite       774707      5.25%    100.00% # Type of FU issued
system.switch_cpus1.iq.FU_type_0::IprAccess            0      0.00%    100.00% # Type of FU issued
system.switch_cpus1.iq.FU_type_0::InstPrefetch            0      0.00%    100.00% # Type of FU issued
system.switch_cpus1.iq.FU_type_0::total      14763985                       # Type of FU issued
system.switch_cpus1.iq.rate                  1.642416                       # Inst issue rate
system.switch_cpus1.iq.fu_busy_cnt             140661                       # FU busy when requested
system.switch_cpus1.iq.fu_busy_rate          0.009527                       # FU busy rate (busy events/executed inst)
system.switch_cpus1.iq.int_inst_queue_reads     38185601                       # Number of integer instruction queue reads
system.switch_cpus1.iq.int_inst_queue_writes     24572151                       # Number of integer instruction queue writes
system.switch_cpus1.iq.int_inst_queue_wakeup_accesses     14333820                       # Number of integer instruction queue wakeup accesses
system.switch_cpus1.iq.fp_inst_queue_reads            0                       # Number of floating instruction queue reads
system.switch_cpus1.iq.fp_inst_queue_writes            0                       # Number of floating instruction queue writes
system.switch_cpus1.iq.fp_inst_queue_wakeup_accesses            0                       # Number of floating instruction queue wakeup accesses
system.switch_cpus1.iq.int_alu_accesses      14904646                       # Number of integer alu accesses
system.switch_cpus1.iq.fp_alu_accesses              0                       # Number of floating point alu accesses
system.switch_cpus1.iew.lsq.thread0.forwLoads        28794                       # Number of loads that had data forwarded from stores
system.switch_cpus1.iew.lsq.thread0.invAddrLoads            0                       # Number of loads ignored due to an invalid address
system.switch_cpus1.iew.lsq.thread0.squashedLoads       719334                       # Number of loads squashed
system.switch_cpus1.iew.lsq.thread0.ignoredResponses          212                       # Number of memory responses ignored because the instruction is squashed
system.switch_cpus1.iew.lsq.thread0.memOrderViolation          165                       # Number of memory ordering violations
system.switch_cpus1.iew.lsq.thread0.squashedStores       236360                       # Number of stores squashed
system.switch_cpus1.iew.lsq.thread0.invAddrSwpfs            0                       # Number of software prefetches ignored due to an invalid address
system.switch_cpus1.iew.lsq.thread0.blockedLoads            0                       # Number of blocked loads due to partial load-store forwarding
system.switch_cpus1.iew.lsq.thread0.rescheduledLoads            0                       # Number of loads that were rescheduled
system.switch_cpus1.iew.lsq.thread0.cacheBlocked            0                       # Number of times an access to memory failed due to the cache being blocked
system.switch_cpus1.iew.iewIdleCycles               0                       # Number of cycles IEW is idle
system.switch_cpus1.iew.iewSquashCycles        894840                       # Number of cycles IEW is squashing
system.switch_cpus1.iew.iewBlockCycles          58207                       # Number of cycles IEW is blocking
system.switch_cpus1.iew.iewUnblockCycles         8662                       # Number of cycles IEW is unblocking
system.switch_cpus1.iew.iewDispatchedInsts     18355630                       # Number of instructions dispatched to IQ
system.switch_cpus1.iew.iewDispSquashedInsts        63620                       # Number of squashed instructions skipped by dispatch
system.switch_cpus1.iew.iewDispLoadInsts      1827432                       # Number of dispatched load instructions
system.switch_cpus1.iew.iewDispStoreInsts       930769                       # Number of dispatched store instructions
system.switch_cpus1.iew.iewDispNonSpecInsts         2472                       # Number of dispatched non-speculative instructions
system.switch_cpus1.iew.iewIQFullEvents          6304                       # Number of times the IQ has become full, causing a stall
system.switch_cpus1.iew.iewLSQFullEvents           18                       # Number of times the LSQ has become full, causing a stall
system.switch_cpus1.iew.memOrderViolationEvents          165                       # Number of memory order violations
system.switch_cpus1.iew.predictedTakenIncorrect       123908                       # Number of branches that were predicted taken incorrectly
system.switch_cpus1.iew.predictedNotTakenIncorrect       122237                       # Number of branches that were predicted not taken incorrectly
system.switch_cpus1.iew.branchMispredicts       246145                       # Number of branch mispredicts detected at execute
system.switch_cpus1.iew.iewExecutedInsts     14482488                       # Number of executed instructions
system.switch_cpus1.iew.iewExecLoadInsts      1371593                       # Number of load instructions executed
system.switch_cpus1.iew.iewExecSquashedInsts       281494                       # Number of squashed instructions skipped in execute
system.switch_cpus1.iew.exec_swp                    0                       # number of swp insts executed
system.switch_cpus1.iew.exec_nop                    3                       # number of nop insts executed
system.switch_cpus1.iew.exec_refs             2115026                       # number of memory reference insts executed
system.switch_cpus1.iew.exec_branches         2049580                       # Number of branches executed
system.switch_cpus1.iew.exec_stores            743433                       # Number of stores executed
system.switch_cpus1.iew.exec_rate            1.611100                       # Inst execution rate
system.switch_cpus1.iew.wb_sent              14345023                       # cumulative count of insts sent to commit
system.switch_cpus1.iew.wb_count             14333820                       # cumulative count of insts written-back
system.switch_cpus1.iew.wb_producers          9383376                       # num instructions producing a value
system.switch_cpus1.iew.wb_consumers         26347197                       # num instructions consuming a value
system.switch_cpus1.iew.wb_penalized                0                       # number of instrctions required to write to 'other' IQ
system.switch_cpus1.iew.wb_rate              1.594562                       # insts written-back per cycle
system.switch_cpus1.iew.wb_fanout            0.356143                       # average fanout of values written-back
system.switch_cpus1.iew.wb_penalized_rate            0                       # fraction of instructions written-back that wrote to 'other' IQ
[...]
system.cpu3.icache.ReadReq_avg_miss_latency::total 348641.095238                       # average ReadReq miss latency
system.cpu3.icache.demand_avg_miss_latency::switch_cpus3.inst 348641.095238                       # average overall miss latency
system.cpu3.icache.demand_avg_miss_latency::total 348641.095238                       # average overall miss latency
system.cpu3.icache.overall_avg_miss_latency::switch_cpus3.inst 348641.095238                       # average overall miss latency
system.cpu3.icache.overall_avg_miss_latency::total 348641.095238                       # average overall miss latency
system.cpu3.icache.blocked_cycles::no_mshrs            0                       # number of cycles access was blocked
system.cpu3.icache.blocked_cycles::no_targets            0                       # number of cycles access was blocked
system.cpu3.icache.blocked::no_mshrs                0                       # number of cycles access was blocked
system.cpu3.icache.blocked::no_targets              0                       # number of cycles access was blocked
system.cpu3.icache.avg_blocked_cycles::no_mshrs          nan                       # average number of cycles each access was blocked
system.cpu3.icache.avg_blocked_cycles::no_targets          nan                       # average number of cycles each access was blocked
system.cpu3.icache.fast_writes                      0                       # number of fast writes performed
system.cpu3.icache.cache_copies                     0                       # number of cache copies performed
system.cpu3.icache.ReadReq_mshr_hits::switch_cpus3.inst           21                       # number of ReadReq MSHR hits
system.cpu3.icache.ReadReq_mshr_hits::total           21                       # number of ReadReq MSHR hits
system.cpu3.icache.demand_mshr_hits::switch_cpus3.inst           21                       # number of demand (read+write) MSHR hits
system.cpu3.icache.demand_mshr_hits::total           21                       # number of demand (read+write) MSHR hits
system.cpu3.icache.overall_mshr_hits::switch_cpus3.inst           21                       # number of overall MSHR hits
system.cpu3.icache.overall_mshr_hits::total           21                       # number of overall MSHR hits
system.cpu3.icache.ReadReq_mshr_misses::switch_cpus3.inst           42                       # number of ReadReq MSHR misses
system.cpu3.icache.ReadReq_mshr_misses::total           42                       # number of ReadReq MSHR misses
system.cpu3.icache.demand_mshr_misses::switch_cpus3.inst           42                       # number of demand (read+write) MSHR misses
system.cpu3.icache.demand_mshr_misses::total           42                       # number of demand (read+write) MSHR misses
system.cpu3.icache.overall_mshr_misses::switch_cpus3.inst           42                       # number of overall MSHR misses
system.cpu3.icache.overall_mshr_misses::total           42                       # number of overall MSHR misses
system.cpu3.icache.ReadReq_mshr_miss_latency::switch_cpus3.inst     13150884                       # number of ReadReq MSHR miss cycles
system.cpu3.icache.ReadReq_mshr_miss_latency::total     13150884                       # number of ReadReq MSHR miss cycles
system.cpu3.icache.demand_mshr_miss_latency::switch_cpus3.inst     13150884                       # number of demand (read+write) MSHR miss cycles
system.cpu3.icache.demand_mshr_miss_latency::total     13150884                       # number of demand (read+write) MSHR miss cycles
system.cpu3.icache.overall_mshr_miss_latency::switch_cpus3.inst     13150884                       # number of overall MSHR miss cycles
system.cpu3.icache.overall_mshr_miss_latency::total     13150884                       # number of overall MSHR miss cycles
system.cpu3.icache.ReadReq_mshr_miss_rate::switch_cpus3.inst     0.000027                       # mshr miss rate for ReadReq accesses
system.cpu3.icache.ReadReq_mshr_miss_rate::total     0.000027                       # mshr miss rate for ReadReq accesses
system.cpu3.icache.demand_mshr_miss_rate::switch_cpus3.inst     0.000027                       # mshr miss rate for demand accesses
system.cpu3.icache.demand_mshr_miss_rate::total     0.000027                       # mshr miss rate for demand accesses
system.cpu3.icache.overall_mshr_miss_rate::switch_cpus3.inst     0.000027                       # mshr miss rate for overall accesses
system.cpu3.icache.overall_mshr_miss_rate::total     0.000027                       # mshr miss rate for overall accesses
system.cpu3.icache.ReadReq_avg_mshr_miss_latency::switch_cpus3.inst 313116.285714                       # average ReadReq mshr miss latency
system.cpu3.icache.ReadReq_avg_mshr_miss_latency::total 313116.285714                       # average ReadReq mshr miss latency
system.cpu3.icache.demand_avg_mshr_miss_latency::switch_cpus3.inst 313116.285714                       # average overall mshr miss latency
system.cpu3.icache.demand_avg_mshr_miss_latency::total 313116.285714                       # average overall mshr miss latency
system.cpu3.icache.overall_avg_mshr_miss_latency::switch_cpus3.inst 313116.285714                       # average overall mshr miss latency
system.cpu3.icache.overall_avg_mshr_miss_latency::total 313116.285714                       # average overall mshr miss latency
system.cpu3.icache.no_allocate_misses               0                       # Number of misses that were no-allocate
system.cpu3.dcache.replacements                  5665                       # number of replacements
system.cpu3.dcache.tagsinuse                      256                       # Cycle average of tags in use
system.cpu3.dcache.total_refs               158222963                       # Total number of references to valid blocks.
system.cpu3.dcache.sampled_refs                  5921                       # Sample count of references to valid blocks.
system.cpu3.dcache.avg_refs              26722.337950                       # Average number of references to valid blocks.
system.cpu3.dcache.warmup_cycle                     0                       # Cycle when the warmup percentage was hit.
system.cpu3.dcache.occ_blocks::switch_cpus3.data   226.050214                       # Average occupied blocks per requestor
system.cpu3.dcache.occ_blocks::cpu3.data    29.949786                       # Average occupied blocks per requestor
system.cpu3.dcache.occ_percent::switch_cpus3.data     0.883009                       # Average percentage of cache occupancy
system.cpu3.dcache.occ_percent::cpu3.data     0.116991                       # Average percentage of cache occupancy
system.cpu3.dcache.occ_percent::total               1                       # Average percentage of cache occupancy
system.cpu3.dcache.ReadReq_hits::switch_cpus3.data      1073768                       # number of ReadReq hits
system.cpu3.dcache.ReadReq_hits::total        1073768                       # number of ReadReq hits
system.cpu3.dcache.WriteReq_hits::switch_cpus3.data       731959                       # number of WriteReq hits
system.cpu3.dcache.WriteReq_hits::total        731959                       # number of WriteReq hits
system.cpu3.dcache.LoadLockedReq_hits::switch_cpus3.data         1912                       # number of LoadLockedReq hits
system.cpu3.dcache.LoadLockedReq_hits::total         1912                       # number of LoadLockedReq hits
system.cpu3.dcache.StoreCondReq_hits::switch_cpus3.data         1723                       # number of StoreCondReq hits
system.cpu3.dcache.StoreCondReq_hits::total         1723                       # number of StoreCondReq hits
system.cpu3.dcache.demand_hits::switch_cpus3.data      1805727                       # number of demand (read+write) hits
system.cpu3.dcache.demand_hits::total         1805727                       # number of demand (read+write) hits
system.cpu3.dcache.overall_hits::switch_cpus3.data      1805727                       # number of overall hits
system.cpu3.dcache.overall_hits::total        1805727                       # number of overall hits
system.cpu3.dcache.ReadReq_misses::switch_cpus3.data        14114                       # number of ReadReq misses
system.cpu3.dcache.ReadReq_misses::total        14114                       # number of ReadReq misses
system.cpu3.dcache.WriteReq_misses::switch_cpus3.data          597                       # number of WriteReq misses
system.cpu3.dcache.WriteReq_misses::total          597                       # number of WriteReq misses
system.cpu3.dcache.demand_misses::switch_cpus3.data        14711                       # number of demand (read+write) misses
system.cpu3.dcache.demand_misses::total         14711                       # number of demand (read+write) misses
system.cpu3.dcache.overall_misses::switch_cpus3.data        14711                       # number of overall misses
system.cpu3.dcache.overall_misses::total        14711                       # number of overall misses
system.cpu3.dcache.ReadReq_miss_latency::switch_cpus3.data    949997584                       # number of ReadReq miss cycles
system.cpu3.dcache.ReadReq_miss_latency::total    949997584                       # number of ReadReq miss cycles
system.cpu3.dcache.WriteReq_miss_latency::switch_cpus3.data     64832050                       # number of WriteReq miss cycles
system.cpu3.dcache.WriteReq_miss_latency::total     64832050                       # number of WriteReq miss cycles
system.cpu3.dcache.demand_miss_latency::switch_cpus3.data   1014829634                       # number of demand (read+write) miss cycles
system.cpu3.dcache.demand_miss_latency::total   1014829634                       # number of demand (read+write) miss cycles
system.cpu3.dcache.overall_miss_latency::switch_cpus3.data   1014829634                       # number of overall miss cycles
system.cpu3.dcache.overall_miss_latency::total   1014829634                       # number of overall miss cycles
system.cpu3.dcache.ReadReq_accesses::switch_cpus3.data      1087882                       # number of ReadReq accesses(hits+misses)
system.cpu3.dcache.ReadReq_accesses::total      1087882                       # number of ReadReq accesses(hits+misses)
system.cpu3.dcache.WriteReq_accesses::switch_cpus3.data       732556                       # number of WriteReq accesses(hits+misses)
system.cpu3.dcache.WriteReq_accesses::total       732556                       # number of WriteReq accesses(hits+misses)
system.cpu3.dcache.LoadLockedReq_accesses::switch_cpus3.data         1912                       # number of LoadLockedReq accesses(hits+misses)
system.cpu3.dcache.LoadLockedReq_accesses::total         1912                       # number of LoadLockedReq accesses(hits+misses)
system.cpu3.dcache.StoreCondReq_accesses::switch_cpus3.data         1723                       # number of StoreCondReq accesses(hits+misses)
system.cpu3.dcache.StoreCondReq_accesses::total         1723                       # number of StoreCondReq accesses(hits+misses)
system.cpu3.dcache.demand_accesses::switch_cpus3.data      1820438                       # number of demand (read+write) accesses
system.cpu3.dcache.demand_accesses::total      1820438                       # number of demand (read+write) accesses
system.cpu3.dcache.overall_accesses::switch_cpus3.data      1820438                       # number of overall (read+write) accesses
system.cpu3.dcache.overall_accesses::total      1820438                       # number of overall (read+write) accesses
system.cpu3.dcache.ReadReq_miss_rate::switch_cpus3.data     0.012974                       # miss rate for ReadReq accesses
system.cpu3.dcache.ReadReq_miss_rate::total     0.012974                       # miss rate for ReadReq accesses
system.cpu3.dcache.WriteReq_miss_rate::switch_cpus3.data     0.000815                       # miss rate for WriteReq accesses
system.cpu3.dcache.WriteReq_miss_rate::total     0.000815                       # miss rate for WriteReq accesses
system.cpu3.dcache.demand_miss_rate::switch_cpus3.data     0.008081                       # miss rate for demand accesses
system.cpu3.dcache.demand_miss_rate::total     0.008081                       # miss rate for demand accesses
system.cpu3.dcache.overall_miss_rate::switch_cpus3.data     0.008081                       # miss rate for overall accesses
system.cpu3.dcache.overall_miss_rate::total     0.008081                       # miss rate for overall accesses
system.cpu3.dcache.ReadReq_avg_miss_latency::switch_cpus3.data 67308.883662                       # average ReadReq miss latency
system.cpu3.dcache.ReadReq_avg_miss_latency::total 67308.883662                       # average ReadReq miss latency
system.cpu3.dcache.WriteReq_avg_miss_latency::switch_cpus3.data 108596.398660                       # average WriteReq miss latency
system.cpu3.dcache.WriteReq_avg_miss_latency::total 108596.398660                       # average WriteReq miss latency
system.cpu3.dcache.demand_avg_miss_latency::switch_cpus3.data 68984.408538                       # average overall miss latency
system.cpu3.dcache.demand_avg_miss_latency::total 68984.408538                       # average overall miss latency
system.cpu3.dcache.overall_avg_miss_latency::switch_cpus3.data 68984.408538                       # average overall miss latency
system.cpu3.dcache.overall_avg_miss_latency::total 68984.408538                       # average overall miss latency
system.cpu3.dcache.blocked_cycles::no_mshrs            0                       # number of cycles access was blocked
system.cpu3.dcache.blocked_cycles::no_targets       116156                       # number of cycles access was blocked
system.cpu3.dcache.blocked::no_mshrs                0                       # number of cycles access was blocked
system.cpu3.dcache.blocked::no_targets              1                       # number of cycles access was blocked
system.cpu3.dcache.avg_blocked_cycles::no_mshrs          nan                       # average number of cycles each access was blocked
system.cpu3.dcache.avg_blocked_cycles::no_targets       116156                       # average number of cycles each access was blocked
system.cpu3.dcache.fast_writes                      0                       # number of fast writes performed
system.cpu3.dcache.cache_copies                     0                       # number of cache copies performed
system.cpu3.dcache.writebacks::writebacks         2518                       # number of writebacks
system.cpu3.dcache.writebacks::total             2518                       # number of writebacks
system.cpu3.dcache.ReadReq_mshr_hits::switch_cpus3.data         8502                       # number of ReadReq MSHR hits
system.cpu3.dcache.ReadReq_mshr_hits::total         8502                       # number of ReadReq MSHR hits
system.cpu3.dcache.WriteReq_mshr_hits::switch_cpus3.data          543                       # number of WriteReq MSHR hits
system.cpu3.dcache.WriteReq_mshr_hits::total          543                       # number of WriteReq MSHR hits
system.cpu3.dcache.demand_mshr_hits::switch_cpus3.data         9045                       # number of demand (read+write) MSHR hits
system.cpu3.dcache.demand_mshr_hits::total         9045                       # number of demand (read+write) MSHR hits
system.cpu3.dcache.overall_mshr_hits::switch_cpus3.data         9045                       # number of overall MSHR hits
system.cpu3.dcache.overall_mshr_hits::total         9045                       # number of overall MSHR hits
system.cpu3.dcache.ReadReq_mshr_misses::switch_cpus3.data         5612                       # number of ReadReq MSHR misses
system.cpu3.dcache.ReadReq_mshr_misses::total         5612                       # number of ReadReq MSHR misses
system.cpu3.dcache.WriteReq_mshr_misses::switch_cpus3.data           54                       # number of WriteReq MSHR misses
system.cpu3.dcache.WriteReq_mshr_misses::total           54                       # number of WriteReq MSHR misses
system.cpu3.dcache.demand_mshr_misses::switch_cpus3.data         5666                       # number of demand (read+write) MSHR misses
system.cpu3.dcache.demand_mshr_misses::total         5666                       # number of demand (read+write) MSHR misses
system.cpu3.dcache.overall_mshr_misses::switch_cpus3.data         5666                       # number of overall MSHR misses
system.cpu3.dcache.overall_mshr_misses::total         5666                       # number of overall MSHR misses
system.cpu3.dcache.ReadReq_mshr_miss_latency::switch_cpus3.data    240477714                       # number of ReadReq MSHR miss cycles
system.cpu3.dcache.ReadReq_mshr_miss_latency::total    240477714                       # number of ReadReq MSHR miss cycles
system.cpu3.dcache.WriteReq_mshr_miss_latency::switch_cpus3.data      1602097                       # number of WriteReq MSHR miss cycles
system.cpu3.dcache.WriteReq_mshr_miss_latency::total      1602097                       # number of WriteReq MSHR miss cycles
system.cpu3.dcache.demand_mshr_miss_latency::switch_cpus3.data    242079811                       # number of demand (read+write) MSHR miss cycles
system.cpu3.dcache.demand_mshr_miss_latency::total    242079811                       # number of demand (read+write) MSHR miss cycles
system.cpu3.dcache.overall_mshr_miss_latency::switch_cpus3.data    242079811                       # number of overall MSHR miss cycles
system.cpu3.dcache.overall_mshr_miss_latency::total    242079811                       # number of overall MSHR miss cycles
system.cpu3.dcache.ReadReq_mshr_miss_rate::switch_cpus3.data     0.005159                       # mshr miss rate for ReadReq accesses
system.cpu3.dcache.ReadReq_mshr_miss_rate::total     0.005159                       # mshr miss rate for ReadReq accesses
system.cpu3.dcache.WriteReq_mshr_miss_rate::switch_cpus3.data     0.000074                       # mshr miss rate for WriteReq accesses
system.cpu3.dcache.WriteReq_mshr_miss_rate::total     0.000074                       # mshr miss rate for WriteReq accesses
system.cpu3.dcache.demand_mshr_miss_rate::switch_cpus3.data     0.003112                       # mshr miss rate for demand accesses
system.cpu3.dcache.demand_mshr_miss_rate::total     0.003112                       # mshr miss rate for demand accesses
system.cpu3.dcache.overall_mshr_miss_rate::switch_cpus3.data     0.003112                       # mshr miss rate for overall accesses
system.cpu3.dcache.overall_mshr_miss_rate::total     0.003112                       # mshr miss rate for overall accesses
system.cpu3.dcache.ReadReq_avg_mshr_miss_latency::switch_cpus3.data 42850.626158                       # average ReadReq mshr miss latency
system.cpu3.dcache.ReadReq_avg_mshr_miss_latency::total 42850.626158                       # average ReadReq mshr miss latency
system.cpu3.dcache.WriteReq_avg_mshr_miss_latency::switch_cpus3.data 29668.462963                       # average WriteReq mshr miss latency
system.cpu3.dcache.WriteReq_avg_mshr_miss_latency::total 29668.462963                       # average WriteReq mshr miss latency
system.cpu3.dcache.demand_avg_mshr_miss_latency::switch_cpus3.data 42724.993117                       # average overall mshr miss latency
system.cpu3.dcache.demand_avg_mshr_miss_latency::total 42724.993117                       # average overall mshr miss latency
system.cpu3.dcache.overall_avg_mshr_miss_latency::switch_cpus3.data 42724.993117                       # average overall mshr miss latency
system.cpu3.dcache.overall_avg_mshr_miss_latency::total 42724.993117                       # average overall mshr miss latency
system.cpu3.dcache.no_allocate_misses               0                       # Number of misses that were no-allocate

---------- End Simulation Statistics   ----------
