
---------- Begin Simulation Statistics ----------
sim_seconds                                  0.120193                       # Number of seconds simulated
sim_ticks                                120193349255                       # Number of ticks simulated
final_tick                               1178052170568                       # Number of ticks from beginning of simulation (restored from checkpoints and never reset)
sim_freq                                 1000000000000                       # Frequency of simulated ticks
host_inst_rate                                  72905                       # Simulator instruction rate (inst/s)
host_op_rate                                    92080                       # Simulator op (including micro ops) rate (op/s)
host_tick_rate                                3970875                       # Simulator tick rate (ticks/s)
host_mem_usage                               16887580                       # Number of bytes of host memory used
host_seconds                                 30268.73                       # Real time elapsed on the host
sim_insts                                  2206732312                       # Number of instructions simulated
sim_ops                                    2787129854                       # Number of ops (including micro ops) simulated
system.physmem.bytes_read::switch_cpus0.inst         1280                       # Number of bytes read from this memory
system.physmem.bytes_read::switch_cpus0.data      3032064                       # Number of bytes read from this memory
system.physmem.bytes_read::switch_cpus1.inst         1664                       # Number of bytes read from this memory
system.physmem.bytes_read::switch_cpus1.data      3380864                       # Number of bytes read from this memory
system.physmem.bytes_read::total              6415872                       # Number of bytes read from this memory
system.physmem.bytes_inst_read::switch_cpus0.inst         1280                       # Number of instructions bytes read from this memory
system.physmem.bytes_inst_read::switch_cpus1.inst         1664                       # Number of instructions bytes read from this memory
system.physmem.bytes_inst_read::total            2944                       # Number of instructions bytes read from this memory
system.physmem.bytes_written::writebacks      1184384                       # Number of bytes written to this memory
system.physmem.bytes_written::total           1184384                       # Number of bytes written to this memory
system.physmem.num_reads::switch_cpus0.inst           10                       # Number of read requests responded to by this memory
system.physmem.num_reads::switch_cpus0.data        23688                       # Number of read requests responded to by this memory
system.physmem.num_reads::switch_cpus1.inst           13                       # Number of read requests responded to by this memory
system.physmem.num_reads::switch_cpus1.data        26413                       # Number of read requests responded to by this memory
system.physmem.num_reads::total                 50124                       # Number of read requests responded to by this memory
system.physmem.num_writes::writebacks            9253                       # Number of write requests responded to by this memory
system.physmem.num_writes::functional               0                       # Number of write requests responded to by this memory
system.physmem.num_writes::interrupt                0                       # Number of write requests responded to by this memory
system.physmem.num_writes::switch_cpus0.dtb.walker            0                       # Number of write requests responded to by this memory
system.physmem.num_writes::switch_cpus0.itb.walker            0                       # Number of write requests responded to by this memory
system.physmem.num_writes::switch_cpus0.inst            0                       # Number of write requests responded to by this memory
system.physmem.num_writes::switch_cpus0.data            0                       # Number of write requests responded to by this memory
system.physmem.num_writes::switch_cpus1.dtb.walker            0                       # Number of write requests responded to by this memory
system.physmem.num_writes::switch_cpus1.itb.walker            0                       # Number of write requests responded to by this memory
system.physmem.num_writes::switch_cpus1.inst            0                       # Number of write requests responded to by this memory
system.physmem.num_writes::switch_cpus1.data            0                       # Number of write requests responded to by this memory
system.physmem.num_writes::cpu0.dtb.walker            0                       # Number of write requests responded to by this memory
system.physmem.num_writes::cpu0.itb.walker            0                       # Number of write requests responded to by this memory
system.physmem.num_writes::cpu0.inst                0                       # Number of write requests responded to by this memory
system.physmem.num_writes::cpu0.data                0                       # Number of write requests responded to by this memory
system.physmem.num_writes::cpu1.dtb.walker            0                       # Number of write requests responded to by this memory
system.physmem.num_writes::cpu1.itb.walker            0                       # Number of write requests responded to by this memory
system.physmem.num_writes::cpu1.inst                0                       # Number of write requests responded to by this memory
system.physmem.num_writes::cpu1.data                0                       # Number of write requests responded to by this memory
system.physmem.num_writes::total                 9253                       # Number of write requests responded to by this memory
system.physmem.bw_read::switch_cpus0.inst        10650                       # Total read bandwidth from this memory (bytes/s)
system.physmem.bw_read::switch_cpus0.data     25226554                       # Total read bandwidth from this memory (bytes/s)
system.physmem.bw_read::switch_cpus1.inst        13844                       # Total read bandwidth from this memory (bytes/s)
system.physmem.bw_read::switch_cpus1.data     28128545                       # Total read bandwidth from this memory (bytes/s)
system.physmem.bw_read::total                53379592                       # Total read bandwidth from this memory (bytes/s)
system.physmem.bw_inst_read::switch_cpus0.inst        10650                       # Instruction read bandwidth from this memory (bytes/s)
system.physmem.bw_inst_read::switch_cpus1.inst        13844                       # Instruction read bandwidth from this memory (bytes/s)
system.physmem.bw_inst_read::total              24494                       # Instruction read bandwidth from this memory (bytes/s)
system.physmem.bw_write::writebacks           9853989                       # Write bandwidth from this memory (bytes/s)
system.physmem.bw_write::total                9853989                       # Write bandwidth from this memory (bytes/s)
system.physmem.bw_total::writebacks           9853989                       # Total bandwidth to/from this memory (bytes/s)
system.physmem.bw_total::switch_cpus0.inst        10650                       # Total bandwidth to/from this memory (bytes/s)
system.physmem.bw_total::switch_cpus0.data     25226554                       # Total bandwidth to/from this memory (bytes/s)
system.physmem.bw_total::switch_cpus1.inst        13844                       # Total bandwidth to/from this memory (bytes/s)
system.physmem.bw_total::switch_cpus1.data     28128545                       # Total bandwidth to/from this memory (bytes/s)
system.physmem.bw_total::total               63233582                       # Total bandwidth to/from this memory (bytes/s)
system.switch_cpus0.dtb.inst_hits                   0                       # ITB inst hits
system.switch_cpus0.dtb.inst_misses                 0                       # ITB inst misses
system.switch_cpus0.dtb.read_hits                   0                       # DTB read hits
system.switch_cpus0.dtb.read_misses                 0                       # DTB read misses
system.switch_cpus0.dtb.write_hits                  0                       # DTB write hits
system.switch_cpus0.dtb.write_misses                0                       # DTB write misses
system.switch_cpus0.dtb.flush_tlb                   0                       # Number of times complete TLB was flushed
system.switch_cpus0.dtb.flush_tlb_mva               0                       # Number of times TLB was flushed by MVA
system.switch_cpus0.dtb.flush_tlb_mva_asid            0                       # Number of times TLB was flushed by MVA & ASID
system.switch_cpus0.dtb.flush_tlb_asid              0                       # Number of times TLB was flushed by ASID
system.switch_cpus0.dtb.flush_entries               0                       # Number of entries that have been flushed from TLB
system.switch_cpus0.dtb.align_faults                0                       # Number of TLB faults due to alignment restrictions
system.switch_cpus0.dtb.prefetch_faults             0                       # Number of TLB faults due to prefetch
system.switch_cpus0.dtb.domain_faults               0                       # Number of TLB faults due to domain restrictions
system.switch_cpus0.dtb.perms_faults                0                       # Number of TLB faults due to permissions restrictions
system.switch_cpus0.dtb.read_accesses               0                       # DTB read accesses
system.switch_cpus0.dtb.write_accesses              0                       # DTB write accesses
system.switch_cpus0.dtb.inst_accesses               0                       # ITB inst accesses
system.switch_cpus0.dtb.hits                        0                       # DTB hits
system.switch_cpus0.dtb.misses                      0                       # DTB misses
system.switch_cpus0.dtb.accesses                    0                       # DTB accesses
system.switch_cpus0.itb.inst_hits                   0                       # ITB inst hits
system.switch_cpus0.itb.inst_misses                 0                       # ITB inst misses
system.switch_cpus0.itb.read_hits                   0                       # DTB read hits
system.switch_cpus0.itb.read_misses                 0                       # DTB read misses
system.switch_cpus0.itb.write_hits                  0                       # DTB write hits
system.switch_cpus0.itb.write_misses                0                       # DTB write misses
system.switch_cpus0.itb.flush_tlb                   0                       # Number of times complete TLB was flushed
system.switch_cpus0.itb.flush_tlb_mva               0                       # Number of times TLB was flushed by MVA
system.switch_cpus0.itb.flush_tlb_mva_asid            0                       # Number of times TLB was flushed by MVA & ASID
system.switch_cpus0.itb.flush_tlb_asid              0                       # Number of times TLB was flushed by ASID
system.switch_cpus0.itb.flush_entries               0                       # Number of entries that have been flushed from TLB
system.switch_cpus0.itb.align_faults                0                       # Number of TLB faults due to alignment restrictions
system.switch_cpus0.itb.prefetch_faults             0                       # Number of TLB faults due to prefetch
system.switch_cpus0.itb.domain_faults               0                       # Number of TLB faults due to domain restrictions
system.switch_cpus0.itb.perms_faults                0                       # Number of TLB faults due to permissions restrictions
system.switch_cpus0.itb.read_accesses               0                       # DTB read accesses
system.switch_cpus0.itb.write_accesses              0                       # DTB write accesses
system.switch_cpus0.itb.inst_accesses               0                       # ITB inst accesses
system.switch_cpus0.itb.hits                        0                       # DTB hits
system.switch_cpus0.itb.misses                      0                       # DTB misses
system.switch_cpus0.itb.accesses                    0                       # DTB accesses
system.cpu0.workload.num_syscalls                   0                       # Number of system calls
system.switch_cpus0.numCycles               144289736                       # number of cpu cycles simulated
system.switch_cpus0.numWorkItemsStarted             0                       # number of work items this cpu started
system.switch_cpus0.numWorkItemsCompleted            0                       # number of work items this cpu completed
system.switch_cpus0.BPredUnit.lookups        23180058                       # Number of BP lookups
system.switch_cpus0.BPredUnit.condPredicted     19090168                       # Number of conditional branches predicted
system.switch_cpus0.BPredUnit.condIncorrect      1932576                       # Number of conditional branches incorrect
system.switch_cpus0.BPredUnit.BTBLookups      9396040                       # Number of BTB lookups
system.switch_cpus0.BPredUnit.BTBHits         8672561                       # Number of BTB hits
system.switch_cpus0.BPredUnit.BTBCorrect            0                       # Number of correct BTB predictions (this stat may not work properly.
system.switch_cpus0.BPredUnit.usedRAS         2438123                       # Number of times the RAS was used to get a target.
system.switch_cpus0.BPredUnit.RASInCorrect        87650                       # Number of incorrect RAS predictions.
system.switch_cpus0.fetch.icacheStallCycles    104498308                       # Number of cycles fetch is stalled on an Icache miss
system.switch_cpus0.fetch.Insts             128064092                       # Number of instructions fetch has processed
system.switch_cpus0.fetch.Branches           23180058                       # Number of branches that fetch encountered
system.switch_cpus0.fetch.predictedBranches     11110684                       # Number of branches that fetch has predicted taken
system.switch_cpus0.fetch.Cycles             27194831                       # Number of cycles fetch has run and was not squashing or blocked
system.switch_cpus0.fetch.SquashCycles        6263051                       # Number of cycles fetch has spent squashing
system.switch_cpus0.fetch.BlockedCycles       5443733                       # Number of cycles fetch has spent blocked
system.switch_cpus0.fetch.CacheLines         12106455                       # Number of cache lines fetched
system.switch_cpus0.fetch.IcacheSquashes      1573271                       # Number of outstanding Icache misses that were squashed
system.switch_cpus0.fetch.rateDist::samples    141435501                       # Number of instructions fetched each cycle (Total)
system.switch_cpus0.fetch.rateDist::mean     1.102964                       # Number of instructions fetched each cycle (Total)
system.switch_cpus0.fetch.rateDist::stdev     2.544855                       # Number of instructions fetched each cycle (Total)
system.switch_cpus0.fetch.rateDist::underflows            0      0.00%      0.00% # Number of instructions fetched each cycle (Total)
system.switch_cpus0.fetch.rateDist::0       114240670     80.77%     80.77% # Number of instructions fetched each cycle (Total)
system.switch_cpus0.fetch.rateDist::1         2783367      1.97%     82.74% # Number of instructions fetched each cycle (Total)
system.switch_cpus0.fetch.rateDist::2         2364377      1.67%     84.41% # Number of instructions fetched each cycle (Total)
system.switch_cpus0.fetch.rateDist::3         2380240      1.68%     86.09% # Number of instructions fetched each cycle (Total)
system.switch_cpus0.fetch.rateDist::4         2268391      1.60%     87.70% # Number of instructions fetched each cycle (Total)
system.switch_cpus0.fetch.rateDist::5         1126387      0.80%     88.50% # Number of instructions fetched each cycle (Total)
system.switch_cpus0.fetch.rateDist::6          778947      0.55%     89.05% # Number of instructions fetched each cycle (Total)
system.switch_cpus0.fetch.rateDist::7         1978765      1.40%     90.44% # Number of instructions fetched each cycle (Total)
system.switch_cpus0.fetch.rateDist::8        13514357      9.56%    100.00% # Number of instructions fetched each cycle (Total)
system.switch_cpus0.fetch.rateDist::overflows            0      0.00%    100.00% # Number of instructions fetched each cycle (Total)
system.switch_cpus0.fetch.rateDist::min_value            0                       # Number of instructions fetched each cycle (Total)
system.switch_cpus0.fetch.rateDist::max_value            8                       # Number of instructions fetched each cycle (Total)
system.switch_cpus0.fetch.rateDist::total    141435501                       # Number of instructions fetched each cycle (Total)
system.switch_cpus0.fetch.branchRate         0.160649                       # Number of branch fetches per cycle
system.switch_cpus0.fetch.rate               0.887548                       # Number of inst fetches per cycle
system.switch_cpus0.decode.IdleCycles       103322369                       # Number of cycles decode is idle
system.switch_cpus0.decode.BlockedCycles      6865211                       # Number of cycles decode is blocked
system.switch_cpus0.decode.RunCycles         26845769                       # Number of cycles decode is running
system.switch_cpus0.decode.UnblockCycles       109978                       # Number of cycles decode is unblocking
system.switch_cpus0.decode.SquashCycles       4292165                       # Number of cycles decode is squashing
system.switch_cpus0.decode.BranchResolved      3730430                       # Number of times decode resolved a branch
system.switch_cpus0.decode.BranchMispred         6465                       # Number of times decode detected a branch misprediction
system.switch_cpus0.decode.DecodedInsts     154466065                       # Number of instructions handled by decode
system.switch_cpus0.decode.SquashedInsts        51179                       # Number of squashed instructions handled by decode
system.switch_cpus0.rename.SquashCycles       4292165                       # Number of cycles rename is squashing
system.switch_cpus0.rename.IdleCycles       103838253                       # Number of cycles rename is idle
system.switch_cpus0.rename.BlockCycles        4240777                       # Number of cycles rename is blocking
system.switch_cpus0.rename.serializeStallCycles      1454606                       # count of cycles rename stalled for serializing inst
system.switch_cpus0.rename.RunCycles         26429707                       # Number of cycles rename is running
system.switch_cpus0.rename.UnblockCycles      1179985                       # Number of cycles rename is unblocking
system.switch_cpus0.rename.RenamedInsts     153010806                       # Number of instructions processed by rename
system.switch_cpus0.rename.ROBFullEvents         1613                       # Number of times rename has blocked due to ROB full
system.switch_cpus0.rename.IQFullEvents        401518                       # Number of times rename has blocked due to IQ full
system.switch_cpus0.rename.LSQFullEvents       623652                       # Number of times rename has blocked due to LSQ full
system.switch_cpus0.rename.FullRegisterEvents        28661                       # Number of times there has been no free registers
system.switch_cpus0.rename.RenamedOperands    214075147                       # Number of destination operands rename has renamed
system.switch_cpus0.rename.RenameLookups    713188854                       # Number of register rename lookups that rename has made
system.switch_cpus0.rename.int_rename_lookups    713188854                       # Number of integer rename lookups
system.switch_cpus0.rename.CommittedMaps    168259218                       # Number of HB maps that are committed
system.switch_cpus0.rename.UndoneMaps        45815922                       # Number of HB maps that are undone due to squashing
system.switch_cpus0.rename.serializingInsts        33619                       # count of serializing insts renamed
system.switch_cpus0.rename.tempSerializingInsts        17597                       # count of temporary serializing insts renamed
system.switch_cpus0.rename.skidInsts          3807490                       # count of insts added to the skid buffer
system.switch_cpus0.memDep0.insertedLoads     15188037                       # Number of loads inserted to the mem dependence unit.
system.switch_cpus0.memDep0.insertedStores      7899031                       # Number of stores inserted to the mem dependence unit.
system.switch_cpus0.memDep0.conflictingLoads       308974                       # Number of conflicting loads.
system.switch_cpus0.memDep0.conflictingStores      1686330                       # Number of conflicting stores.
system.switch_cpus0.iq.iqInstsAdded         149146832                       # Number of instructions added to the IQ (excludes non-spec)
system.switch_cpus0.iq.iqNonSpecInstsAdded        33619                       # Number of non-speculative instructions added to the IQ
system.switch_cpus0.iq.iqInstsIssued        139208255                       # Number of instructions issued
system.switch_cpus0.iq.iqSquashedInstsIssued       108312                       # Number of squashed instructions issued
system.switch_cpus0.iq.iqSquashedInstsExamined     25207457                       # Number of squashed instructions iterated over during squash; mainly for profiling
system.switch_cpus0.iq.iqSquashedOperandsExamined     57158863                       # Number of squashed operands that are examined and possibly removed from graph
system.switch_cpus0.iq.iqSquashedNonSpecRemoved         1575                       # Number of squashed non-spec instructions that were removed
system.switch_cpus0.iq.issued_per_cycle::samples    141435501                       # Number of insts issued each cycle
system.switch_cpus0.iq.issued_per_cycle::mean     0.984253                       # Number of insts issued each cycle
system.switch_cpus0.iq.issued_per_cycle::stdev     1.582586                       # Number of insts issued each cycle
system.switch_cpus0.iq.issued_per_cycle::underflows            0      0.00%      0.00% # Number of insts issued each cycle
system.switch_cpus0.iq.issued_per_cycle::0     84045345     59.42%     59.42% # Number of insts issued each cycle
system.switch_cpus0.iq.issued_per_cycle::1     23732184     16.78%     76.20% # Number of insts issued each cycle
system.switch_cpus0.iq.issued_per_cycle::2     11963981      8.46%     84.66% # Number of insts issued each cycle
system.switch_cpus0.iq.issued_per_cycle::3      7806881      5.52%     90.18% # Number of insts issued each cycle
system.switch_cpus0.iq.issued_per_cycle::4      6899309      4.88%     95.06% # Number of insts issued each cycle
system.switch_cpus0.iq.issued_per_cycle::5      2708221      1.91%     96.97% # Number of insts issued each cycle
system.switch_cpus0.iq.issued_per_cycle::6      3063692      2.17%     99.14% # Number of insts issued each cycle
system.switch_cpus0.iq.issued_per_cycle::7      1120131      0.79%     99.93% # Number of insts issued each cycle
system.switch_cpus0.iq.issued_per_cycle::8        95757      0.07%    100.00% # Number of insts issued each cycle
system.switch_cpus0.iq.issued_per_cycle::overflows            0      0.00%    100.00% # Number of insts issued each cycle
system.switch_cpus0.iq.issued_per_cycle::min_value            0                       # Number of insts issued each cycle
system.switch_cpus0.iq.issued_per_cycle::max_value            8                       # Number of insts issued each cycle
system.switch_cpus0.iq.issued_per_cycle::total    141435501                       # Number of insts issued each cycle
system.switch_cpus0.iq.fu_full::No_OpClass            0      0.00%      0.00% # attempts to use FU when none available
system.switch_cpus0.iq.fu_full::IntAlu         976119     74.80%     74.80% # attempts to use FU when none available
system.switch_cpus0.iq.fu_full::IntMult             0      0.00%     74.80% # attempts to use FU when none available
system.switch_cpus0.iq.fu_full::IntDiv              0      0.00%     74.80% # attempts to use FU when none available
system.switch_cpus0.iq.fu_full::FloatAdd            0      0.00%     74.80% # attempts to use FU when none available
system.switch_cpus0.iq.fu_full::FloatCmp            0      0.00%     74.80% # attempts to use FU when none available
system.switch_cpus0.iq.fu_full::FloatCvt            0      0.00%     74.80% # attempts to use FU when none available
system.switch_cpus0.iq.fu_full::FloatMult            0      0.00%     74.80% # attempts to use FU when none available
system.switch_cpus0.iq.fu_full::FloatDiv            0      0.00%     74.80% # attempts to use FU when none available
system.switch_cpus0.iq.fu_full::FloatSqrt            0      0.00%     74.80% # attempts to use FU when none available
system.switch_cpus0.iq.fu_full::SimdAdd             0      0.00%     74.80% # attempts to use FU when none available
system.switch_cpus0.iq.fu_full::SimdAddAcc            0      0.00%     74.80% # attempts to use FU when none available
system.switch_cpus0.iq.fu_full::SimdAlu             0      0.00%     74.80% # attempts to use FU when none available
system.switch_cpus0.iq.fu_full::SimdCmp             0      0.00%     74.80% # attempts to use FU when none available
system.switch_cpus0.iq.fu_full::SimdCvt             0      0.00%     74.80% # attempts to use FU when none available
system.switch_cpus0.iq.fu_full::SimdMisc            0      0.00%     74.80% # attempts to use FU when none available
system.switch_cpus0.iq.fu_full::SimdMult            0      0.00%     74.80% # attempts to use FU when none available
system.switch_cpus0.iq.fu_full::SimdMultAcc            0      0.00%     74.80% # attempts to use FU when none available
system.switch_cpus0.iq.fu_full::SimdShift            0      0.00%     74.80% # attempts to use FU when none available
system.switch_cpus0.iq.fu_full::SimdShiftAcc            0      0.00%     74.80% # attempts to use FU when none available
system.switch_cpus0.iq.fu_full::SimdSqrt            0      0.00%     74.80% # attempts to use FU when none available
system.switch_cpus0.iq.fu_full::SimdFloatAdd            0      0.00%     74.80% # attempts to use FU when none available
system.switch_cpus0.iq.fu_full::SimdFloatAlu            0      0.00%     74.80% # attempts to use FU when none available
system.switch_cpus0.iq.fu_full::SimdFloatCmp            0      0.00%     74.80% # attempts to use FU when none available
system.switch_cpus0.iq.fu_full::SimdFloatCvt            0      0.00%     74.80% # attempts to use FU when none available
system.switch_cpus0.iq.fu_full::SimdFloatDiv            0      0.00%     74.80% # attempts to use FU when none available
system.switch_cpus0.iq.fu_full::SimdFloatMisc            0      0.00%     74.80% # attempts to use FU when none available
system.switch_cpus0.iq.fu_full::SimdFloatMult            0      0.00%     74.80% # attempts to use FU when none available
system.switch_cpus0.iq.fu_full::SimdFloatMultAcc            0      0.00%     74.80% # attempts to use FU when none available
system.switch_cpus0.iq.fu_full::SimdFloatSqrt            0      0.00%     74.80% # attempts to use FU when none available
system.switch_cpus0.iq.fu_full::MemRead        156386     11.98%     86.78% # attempts to use FU when none available
system.switch_cpus0.iq.fu_full::MemWrite       172535     13.22%    100.00% # attempts to use FU when none available
system.switch_cpus0.iq.fu_full::IprAccess            0      0.00%    100.00% # attempts to use FU when none available
system.switch_cpus0.iq.fu_full::InstPrefetch            0      0.00%    100.00% # attempts to use FU when none available
system.switch_cpus0.iq.FU_type_0::No_OpClass            0      0.00%      0.00% # Type of FU issued
system.switch_cpus0.iq.FU_type_0::IntAlu    114973109     82.59%     82.59% # Type of FU issued
system.switch_cpus0.iq.FU_type_0::IntMult      2012931      1.45%     84.04% # Type of FU issued
system.switch_cpus0.iq.FU_type_0::IntDiv            0      0.00%     84.04% # Type of FU issued
system.switch_cpus0.iq.FU_type_0::FloatAdd            0      0.00%     84.04% # Type of FU issued
system.switch_cpus0.iq.FU_type_0::FloatCmp            0      0.00%     84.04% # Type of FU issued
system.switch_cpus0.iq.FU_type_0::FloatCvt            0      0.00%     84.04% # Type of FU issued
system.switch_cpus0.iq.FU_type_0::FloatMult            0      0.00%     84.04% # Type of FU issued
system.switch_cpus0.iq.FU_type_0::FloatDiv            0      0.00%     84.04% # Type of FU issued
system.switch_cpus0.iq.FU_type_0::FloatSqrt            0      0.00%     84.04% # Type of FU issued
system.switch_cpus0.iq.FU_type_0::SimdAdd            0      0.00%     84.04% # Type of FU issued
system.switch_cpus0.iq.FU_type_0::SimdAddAcc            0      0.00%     84.04% # Type of FU issued
system.switch_cpus0.iq.FU_type_0::SimdAlu            0      0.00%     84.04% # Type of FU issued
system.switch_cpus0.iq.FU_type_0::SimdCmp            0      0.00%     84.04% # Type of FU issued
system.switch_cpus0.iq.FU_type_0::SimdCvt            0      0.00%     84.04% # Type of FU issued
system.switch_cpus0.iq.FU_type_0::SimdMisc            0      0.00%     84.04% # Type of FU issued
system.switch_cpus0.iq.FU_type_0::SimdMult            0      0.00%     84.04% # Type of FU issued
system.switch_cpus0.iq.FU_type_0::SimdMultAcc            0      0.00%     84.04% # Type of FU issued
system.switch_cpus0.iq.FU_type_0::SimdShift            0      0.00%     84.04% # Type of FU issued
system.switch_cpus0.iq.FU_type_0::SimdShiftAcc            0      0.00%     84.04% # Type of FU issued
system.switch_cpus0.iq.FU_type_0::SimdSqrt            0      0.00%     84.04% # Type of FU issued
system.switch_cpus0.iq.FU_type_0::SimdFloatAdd            0      0.00%     84.04% # Type of FU issued
system.switch_cpus0.iq.FU_type_0::SimdFloatAlu            0      0.00%     84.04% # Type of FU issued
system.switch_cpus0.iq.FU_type_0::SimdFloatCmp            0      0.00%     84.04% # Type of FU issued
system.switch_cpus0.iq.FU_type_0::SimdFloatCvt            0      0.00%     84.04% # Type of FU issued
system.switch_cpus0.iq.FU_type_0::SimdFloatDiv            0      0.00%     84.04% # Type of FU issued
system.switch_cpus0.iq.FU_type_0::SimdFloatMisc        16022      0.01%     84.05% # Type of FU issued
system.switch_cpus0.iq.FU_type_0::SimdFloatMult            0      0.00%     84.05% # Type of FU issued
system.switch_cpus0.iq.FU_type_0::SimdFloatMultAcc            0      0.00%     84.05% # Type of FU issued
system.switch_cpus0.iq.FU_type_0::SimdFloatSqrt            0      0.00%     84.05% # Type of FU issued
system.switch_cpus0.iq.FU_type_0::MemRead     14363733     10.32%     94.37% # Type of FU issued
system.switch_cpus0.iq.FU_type_0::MemWrite      7842460      5.63%    100.00% # Type of FU issued
system.switch_cpus0.iq.FU_type_0::IprAccess            0      0.00%    100.00% # Type of FU issued
system.switch_cpus0.iq.FU_type_0::InstPrefetch            0      0.00%    100.00% # Type of FU issued
system.switch_cpus0.iq.FU_type_0::total     139208255                       # Type of FU issued
system.switch_cpus0.iq.rate                  0.964783                       # Inst issue rate
system.switch_cpus0.iq.fu_busy_cnt            1305040                       # FU busy when requested
system.switch_cpus0.iq.fu_busy_rate          0.009375                       # FU busy rate (busy events/executed inst)
system.switch_cpus0.iq.int_inst_queue_reads    421265363                       # Number of integer instruction queue reads
system.switch_cpus0.iq.int_inst_queue_writes    174388586                       # Number of integer instruction queue writes
system.switch_cpus0.iq.int_inst_queue_wakeup_accesses    135091865                       # Number of integer instruction queue wakeup accesses
system.switch_cpus0.iq.fp_inst_queue_reads            0                       # Number of floating instruction queue reads
system.switch_cpus0.iq.fp_inst_queue_writes            0                       # Number of floating instruction queue writes
system.switch_cpus0.iq.fp_inst_queue_wakeup_accesses            0                       # Number of floating instruction queue wakeup accesses
system.switch_cpus0.iq.int_alu_accesses     140513295                       # Number of integer alu accesses
system.switch_cpus0.iq.fp_alu_accesses              0                       # Number of floating point alu accesses
system.switch_cpus0.iew.lsq.thread0.forwLoads       201037                       # Number of loads that had data forwarded from stores
system.switch_cpus0.iew.lsq.thread0.invAddrLoads            0                       # Number of loads ignored due to an invalid address
system.switch_cpus0.iew.lsq.thread0.squashedLoads      2975908                       # Number of loads squashed
system.switch_cpus0.iew.lsq.thread0.ignoredResponses         1065                       # Number of memory responses ignored because the instruction is squashed
system.switch_cpus0.iew.lsq.thread0.memOrderViolation          692                       # Number of memory ordering violations
system.switch_cpus0.iew.lsq.thread0.squashedStores       157361                       # Number of stores squashed
system.switch_cpus0.iew.lsq.thread0.invAddrSwpfs            0                       # Number of software prefetches ignored due to an invalid address
system.switch_cpus0.iew.lsq.thread0.blockedLoads            0                       # Number of blocked loads due to partial load-store forwarding
system.switch_cpus0.iew.lsq.thread0.rescheduledLoads          591                       # Number of loads that were rescheduled
system.switch_cpus0.iew.lsq.thread0.cacheBlocked            0                       # Number of times an access to memory failed due to the cache being blocked
system.switch_cpus0.iew.iewIdleCycles               0                       # Number of cycles IEW is idle
system.switch_cpus0.iew.iewSquashCycles       4292165                       # Number of cycles IEW is squashing
system.switch_cpus0.iew.iewBlockCycles        3541240                       # Number of cycles IEW is blocking
system.switch_cpus0.iew.iewUnblockCycles       252564                       # Number of cycles IEW is unblocking
system.switch_cpus0.iew.iewDispatchedInsts    149180451                       # Number of instructions dispatched to IQ
system.switch_cpus0.iew.iewDispSquashedInsts      1165407                       # Number of squashed instructions skipped by dispatch
system.switch_cpus0.iew.iewDispLoadInsts     15188037                       # Number of dispatched load instructions
system.switch_cpus0.iew.iewDispStoreInsts      7899031                       # Number of dispatched store instructions
system.switch_cpus0.iew.iewDispNonSpecInsts        17597                       # Number of dispatched non-speculative instructions
system.switch_cpus0.iew.iewIQFullEvents        202017                       # Number of times the IQ has become full, causing a stall
system.switch_cpus0.iew.iewLSQFullEvents        13092                       # Number of times the LSQ has become full, causing a stall
system.switch_cpus0.iew.memOrderViolationEvents          692                       # Number of memory order violations
system.switch_cpus0.iew.predictedTakenIncorrect      1150354                       # Number of branches that were predicted taken incorrectly
system.switch_cpus0.iew.predictedNotTakenIncorrect      1083896                       # Number of branches that were predicted not taken incorrectly
system.switch_cpus0.iew.branchMispredicts      2234250                       # Number of branch mispredicts detected at execute
system.switch_cpus0.iew.iewExecutedInsts    136832973                       # Number of executed instructions
system.switch_cpus0.iew.iewExecLoadInsts     14112648                       # Number of load instructions executed
system.switch_cpus0.iew.iewExecSquashedInsts      2375282                       # Number of squashed instructions skipped in execute
system.switch_cpus0.iew.exec_swp                    0                       # number of swp insts executed
system.switch_cpus0.iew.exec_nop                    0                       # number of nop insts executed
system.switch_cpus0.iew.exec_refs            21953447                       # number of memory reference insts executed
system.switch_cpus0.iew.exec_branches        19292964                       # Number of branches executed
system.switch_cpus0.iew.exec_stores           7840799                       # Number of stores executed
system.switch_cpus0.iew.exec_rate            0.948321                       # Inst execution rate
system.switch_cpus0.iew.wb_sent             135097974                       # cumulative count of insts sent to commit
system.switch_cpus0.iew.wb_count            135091865                       # cumulative count of insts written-back
system.switch_cpus0.iew.wb_producers         81527298                       # num instructions producing a value
system.switch_cpus0.iew.wb_consumers        221174016                       # num instructions consuming a value
system.switch_cpus0.iew.wb_penalized                0                       # number of instrctions required to write to 'other' IQ
system.switch_cpus0.iew.wb_rate              0.936254                       # insts written-back per cycle
system.switch_cpus0.iew.wb_fanout            0.368612                       # average fanout of values written-back
system.switch_cpus0.iew.wb_penalized_rate            0                       # fraction of instructions written-back that wrote to 'other' IQ
system.switch_cpus0.commit.commitCommittedInsts    100000000                       # The number of committed instructions
system.switch_cpus0.commit.commitCommittedOps    122421916                       # The number of committed instructions
system.switch_cpus0.commit.commitSquashedInsts     26766601                       # The number of squashed insts skipped by commit
system.switch_cpus0.commit.commitNonSpecStalls        32044                       # The number of times commit has been forced to stall to communicate backwards
system.switch_cpus0.commit.branchMispredicts      1957425                       # The number of times a branch was mispredicted
system.switch_cpus0.commit.committed_per_cycle::samples    137143336                       # Number of insts commited each cycle
system.switch_cpus0.commit.committed_per_cycle::mean     0.892657                       # Number of insts commited each cycle
system.switch_cpus0.commit.committed_per_cycle::stdev     1.709766                       # Number of insts commited each cycle
system.switch_cpus0.commit.committed_per_cycle::underflows            0      0.00%      0.00% # Number of insts commited each cycle
system.switch_cpus0.commit.committed_per_cycle::0     88046563     64.20%     64.20% # Number of insts commited each cycle
system.switch_cpus0.commit.committed_per_cycle::1     22501416     16.41%     80.61% # Number of insts commited each cycle
system.switch_cpus0.commit.committed_per_cycle::2     10811024      7.88%     88.49% # Number of insts commited each cycle
system.switch_cpus0.commit.committed_per_cycle::3      4819885      3.51%     92.01% # Number of insts commited each cycle
system.switch_cpus0.commit.committed_per_cycle::4      3763696      2.74%     94.75% # Number of insts commited each cycle
system.switch_cpus0.commit.committed_per_cycle::5      1534870      1.12%     95.87% # Number of insts commited each cycle
system.switch_cpus0.commit.committed_per_cycle::6      1560486      1.14%     97.01% # Number of insts commited each cycle
system.switch_cpus0.commit.committed_per_cycle::7      1096421      0.80%     97.81% # Number of insts commited each cycle
system.switch_cpus0.commit.committed_per_cycle::8      3008975      2.19%    100.00% # Number of insts commited each cycle
system.switch_cpus0.commit.committed_per_cycle::overflows            0      0.00%    100.00% # Number of insts commited each cycle
system.switch_cpus0.commit.committed_per_cycle::min_value            0                       # Number of insts commited each cycle
system.switch_cpus0.commit.committed_per_cycle::max_value            8                       # Number of insts commited each cycle
system.switch_cpus0.commit.committed_per_cycle::total    137143336                       # Number of insts commited each cycle
system.switch_cpus0.commit.committedInsts    100000000                       # Number of instructions committed
system.switch_cpus0.commit.committedOps     122421916                       # Number of ops (including micro ops) committed
system.switch_cpus0.commit.swp_count                0                       # Number of s/w prefetches committed
system.switch_cpus0.commit.refs              19953796                       # Number of memory references committed
system.switch_cpus0.commit.loads             12212126                       # Number of loads committed
system.switch_cpus0.commit.membars              16022                       # Number of memory barriers committed
system.switch_cpus0.commit.branches          17573934                       # Number of branches committed
system.switch_cpus0.commit.fp_insts                 0                       # Number of committed floating point instructions.
system.switch_cpus0.commit.int_insts        110146122                       # Number of committed integer instructions.
system.switch_cpus0.commit.function_calls      2413416                       # Number of function calls committed.
system.switch_cpus0.commit.bw_lim_events      3008975                       # number cycles where commit BW limit reached
system.switch_cpus0.commit.bw_limited               0                       # number of insts not committed due to BW limits
system.switch_cpus0.rob.rob_reads           283322878                       # The number of ROB reads
system.switch_cpus0.rob.rob_writes          302669435                       # The number of ROB writes
system.switch_cpus0.timesIdled                  57104                       # Number of times that the entire CPU went into an idle state and unscheduled itself
system.switch_cpus0.idleCycles                2854235                       # Total number of cycles that the CPU has spent unscheduled due to idling
system.switch_cpus0.committedInsts          100000000                       # Number of Instructions Simulated
system.switch_cpus0.committedOps            122421916                       # Number of Ops (including micro ops) Simulated
system.switch_cpus0.committedInsts_total    100000000                       # Number of Instructions Simulated
system.switch_cpus0.cpi                      1.442897                       # CPI: Cycles Per Instruction
system.switch_cpus0.cpi_total                1.442897                       # CPI: Total CPI of All Threads
system.switch_cpus0.ipc                      0.693050                       # IPC: Instructions Per Cycle
system.switch_cpus0.ipc_total                0.693050                       # IPC: Total IPC of All Threads
system.switch_cpus0.int_regfile_reads       618339761                       # number of integer regfile reads
system.switch_cpus0.int_regfile_writes      186411821                       # number of integer regfile writes
system.switch_cpus0.misc_regfile_reads      145835453                       # number of misc regfile reads
system.switch_cpus0.misc_regfile_writes         32044                       # number of misc regfile writes
system.switch_cpus1.dtb.inst_hits                   0                       # ITB inst hits
system.switch_cpus1.dtb.inst_misses                 0                       # ITB inst misses
system.switch_cpus1.dtb.read_hits                   0                       # DTB read hits
system.switch_cpus1.dtb.read_misses                 0                       # DTB read misses
system.switch_cpus1.dtb.write_hits                  0                       # DTB write hits
system.switch_cpus1.dtb.write_misses                0                       # DTB write misses
system.switch_cpus1.dtb.flush_tlb                   0                       # Number of times complete TLB was flushed
system.switch_cpus1.dtb.flush_tlb_mva               0                       # Number of times TLB was flushed by MVA
system.switch_cpus1.dtb.flush_tlb_mva_asid            0                       # Number of times TLB was flushed by MVA & ASID
system.switch_cpus1.dtb.flush_tlb_asid              0                       # Number of times TLB was flushed by ASID
system.switch_cpus1.dtb.flush_entries               0                       # Number of entries that have been flushed from TLB
system.switch_cpus1.dtb.align_faults                0                       # Number of TLB faults due to alignment restrictions
system.switch_cpus1.dtb.prefetch_faults             0                       # Number of TLB faults due to prefetch
system.switch_cpus1.dtb.domain_faults               0                       # Number of TLB faults due to domain restrictions
system.switch_cpus1.dtb.perms_faults                0                       # Number of TLB faults due to permissions restrictions
system.switch_cpus1.dtb.read_accesses               0                       # DTB read accesses
system.switch_cpus1.dtb.write_accesses              0                       # DTB write accesses
system.switch_cpus1.dtb.inst_accesses               0                       # ITB inst accesses
system.switch_cpus1.dtb.hits                        0                       # DTB hits
system.switch_cpus1.dtb.misses                      0                       # DTB misses
system.switch_cpus1.dtb.accesses                    0                       # DTB accesses
system.switch_cpus1.itb.inst_hits                   0                       # ITB inst hits
system.switch_cpus1.itb.inst_misses                 0                       # ITB inst misses
system.switch_cpus1.itb.read_hits                   0                       # DTB read hits
system.switch_cpus1.itb.read_misses                 0                       # DTB read misses
system.switch_cpus1.itb.write_hits                  0                       # DTB write hits
system.switch_cpus1.itb.write_misses                0                       # DTB write misses
system.switch_cpus1.itb.flush_tlb                   0                       # Number of times complete TLB was flushed
system.switch_cpus1.itb.flush_tlb_mva               0                       # Number of times TLB was flushed by MVA
system.switch_cpus1.itb.flush_tlb_mva_asid            0                       # Number of times TLB was flushed by MVA & ASID
system.switch_cpus1.itb.flush_tlb_asid              0                       # Number of times TLB was flushed by ASID
system.switch_cpus1.itb.flush_entries               0                       # Number of entries that have been flushed from TLB
system.switch_cpus1.itb.align_faults                0                       # Number of TLB faults due to alignment restrictions
system.switch_cpus1.itb.prefetch_faults             0                       # Number of TLB faults due to prefetch
system.switch_cpus1.itb.domain_faults               0                       # Number of TLB faults due to domain restrictions
system.switch_cpus1.itb.perms_faults                0                       # Number of TLB faults due to permissions restrictions
system.switch_cpus1.itb.read_accesses               0                       # DTB read accesses
system.switch_cpus1.itb.write_accesses              0                       # DTB write accesses
system.switch_cpus1.itb.inst_accesses               0                       # ITB inst accesses
system.switch_cpus1.itb.hits                        0                       # DTB hits
system.switch_cpus1.itb.misses                      0                       # DTB misses
system.switch_cpus1.itb.accesses                    0                       # DTB accesses
system.cpu1.workload.num_syscalls                   0                       # Number of system calls
system.switch_cpus1.numCycles               144289736                       # number of cpu cycles simulated
system.switch_cpus1.numWorkItemsStarted             0                       # number of work items this cpu started
system.switch_cpus1.numWorkItemsCompleted            0                       # number of work items this cpu completed
system.switch_cpus1.BPredUnit.lookups        23808150                       # Number of BP lookups
system.switch_cpus1.BPredUnit.condPredicted     19292588                       # Number of conditional branches predicted
system.switch_cpus1.BPredUnit.condIncorrect      2063471                       # Number of conditional branches incorrect
system.switch_cpus1.BPredUnit.BTBLookups      9618333                       # Number of BTB lookups
system.switch_cpus1.BPredUnit.BTBHits         9140268                       # Number of BTB hits
system.switch_cpus1.BPredUnit.BTBCorrect            0                       # Number of correct BTB predictions (this stat may not work properly.
system.switch_cpus1.BPredUnit.usedRAS         2544712                       # Number of times the RAS was used to get a target.
system.switch_cpus1.BPredUnit.RASInCorrect        91929                       # Number of incorrect RAS predictions.
system.switch_cpus1.fetch.icacheStallCycles    103826326                       # Number of cycles fetch is stalled on an Icache miss
system.switch_cpus1.fetch.Insts             131057434                       # Number of instructions fetch has processed
system.switch_cpus1.fetch.Branches           23808150                       # Number of branches that fetch encountered
system.switch_cpus1.fetch.predictedBranches     11684980                       # Number of branches that fetch has predicted taken
system.switch_cpus1.fetch.Cycles             28629715                       # Number of cycles fetch has run and was not squashing or blocked
system.switch_cpus1.fetch.SquashCycles        6695338                       # Number of cycles fetch has spent squashing
system.switch_cpus1.fetch.BlockedCycles       3204954                       # Number of cycles fetch has spent blocked
system.switch_cpus1.fetch.CacheLines         12116987                       # Number of cache lines fetched
system.switch_cpus1.fetch.IcacheSquashes      1665129                       # Number of outstanding Icache misses that were squashed
system.switch_cpus1.fetch.rateDist::samples    140247121                       # Number of instructions fetched each cycle (Total)
system.switch_cpus1.fetch.rateDist::mean     1.140811                       # Number of instructions fetched each cycle (Total)
system.switch_cpus1.fetch.rateDist::stdev     2.555015                       # Number of instructions fetched each cycle (Total)
system.switch_cpus1.fetch.rateDist::underflows            0      0.00%      0.00% # Number of instructions fetched each cycle (Total)
system.switch_cpus1.fetch.rateDist::0       111617406     79.59%     79.59% # Number of instructions fetched each cycle (Total)
system.switch_cpus1.fetch.rateDist::1         2692956      1.92%     81.51% # Number of instructions fetched each cycle (Total)
system.switch_cpus1.fetch.rateDist::2         2056259      1.47%     82.97% # Number of instructions fetched each cycle (Total)
system.switch_cpus1.fetch.rateDist::3         5039929      3.59%     86.57% # Number of instructions fetched each cycle (Total)
system.switch_cpus1.fetch.rateDist::4         1130980      0.81%     87.37% # Number of instructions fetched each cycle (Total)
system.switch_cpus1.fetch.rateDist::5         1628445      1.16%     88.53% # Number of instructions fetched each cycle (Total)
system.switch_cpus1.fetch.rateDist::6         1235407      0.88%     89.41% # Number of instructions fetched each cycle (Total)
system.switch_cpus1.fetch.rateDist::7          774263      0.55%     89.97% # Number of instructions fetched each cycle (Total)
system.switch_cpus1.fetch.rateDist::8        14071476     10.03%    100.00% # Number of instructions fetched each cycle (Total)
system.switch_cpus1.fetch.rateDist::overflows            0      0.00%    100.00% # Number of instructions fetched each cycle (Total)
system.switch_cpus1.fetch.rateDist::min_value            0                       # Number of instructions fetched each cycle (Total)
system.switch_cpus1.fetch.rateDist::max_value            8                       # Number of instructions fetched each cycle (Total)
system.switch_cpus1.fetch.rateDist::total    140247121                       # Number of instructions fetched each cycle (Total)
system.switch_cpus1.fetch.branchRate         0.165002                       # Number of branch fetches per cycle
system.switch_cpus1.fetch.rate               0.908294                       # Number of inst fetches per cycle
system.switch_cpus1.decode.IdleCycles       102602223                       # Number of cycles decode is idle
system.switch_cpus1.decode.BlockedCycles      4799525                       # Number of cycles decode is blocked
system.switch_cpus1.decode.RunCycles         28188454                       # Number of cycles decode is running
system.switch_cpus1.decode.UnblockCycles       113447                       # Number of cycles decode is unblocking
system.switch_cpus1.decode.SquashCycles       4543463                       # Number of cycles decode is squashing
system.switch_cpus1.decode.BranchResolved      4109755                       # Number of times decode resolved a branch
system.switch_cpus1.decode.BranchMispred        42670                       # Number of times decode detected a branch misprediction
system.switch_cpus1.decode.DecodedInsts     158079660                       # Number of instructions handled by decode
system.switch_cpus1.decode.SquashedInsts        81665                       # Number of squashed instructions handled by decode
system.switch_cpus1.rename.SquashCycles       4543463                       # Number of cycles rename is squashing
system.switch_cpus1.rename.IdleCycles       103472740                       # Number of cycles rename is idle
system.switch_cpus1.rename.BlockCycles        1337885                       # Number of cycles rename is blocking
system.switch_cpus1.rename.serializeStallCycles      1981086                       # count of cycles rename stalled for serializing inst
system.switch_cpus1.rename.RunCycles         27421193                       # Number of cycles rename is running
system.switch_cpus1.rename.UnblockCycles      1490746                       # Number of cycles rename is unblocking
system.switch_cpus1.rename.RenamedInsts     156454193                       # Number of instructions processed by rename
system.switch_cpus1.rename.ROBFullEvents        23837                       # Number of times rename has blocked due to ROB full
system.switch_cpus1.rename.IQFullEvents        272096                       # Number of times rename has blocked due to IQ full
system.switch_cpus1.rename.LSQFullEvents       612654                       # Number of times rename has blocked due to LSQ full
system.switch_cpus1.rename.FullRegisterEvents       166466                       # Number of times there has been no free registers
system.switch_cpus1.rename.RenamedOperands    219831277                       # Number of destination operands rename has renamed
system.switch_cpus1.rename.RenameLookups    728695544                       # Number of register rename lookups that rename has made
system.switch_cpus1.rename.int_rename_lookups    728695544                       # Number of integer rename lookups
system.switch_cpus1.rename.CommittedMaps    173528746                       # Number of HB maps that are committed
system.switch_cpus1.rename.UndoneMaps        46302520                       # Number of HB maps that are undone due to squashing
system.switch_cpus1.rename.serializingInsts        37978                       # count of serializing insts renamed
system.switch_cpus1.rename.tempSerializingInsts        21170                       # count of temporary serializing insts renamed
system.switch_cpus1.rename.skidInsts          5075611                       # count of insts added to the skid buffer
system.switch_cpus1.memDep0.insertedLoads     15082517                       # Number of loads inserted to the mem dependence unit.
system.switch_cpus1.memDep0.insertedStores      7366438                       # Number of stores inserted to the mem dependence unit.
system.switch_cpus1.memDep0.conflictingLoads       125093                       # Number of conflicting loads.
system.switch_cpus1.memDep0.conflictingStores      1639082                       # Number of conflicting stores.
system.switch_cpus1.iq.iqInstsAdded         153673709                       # Number of instructions added to the IQ (excludes non-spec)
system.switch_cpus1.iq.iqNonSpecInstsAdded        37967                       # Number of non-speculative instructions added to the IQ
system.switch_cpus1.iq.iqInstsIssued        142776138                       # Number of instructions issued
system.switch_cpus1.iq.iqSquashedInstsIssued       191368                       # Number of squashed instructions issued
system.switch_cpus1.iq.iqSquashedInstsExamined     27994856                       # Number of squashed instructions iterated over during squash; mainly for profiling
system.switch_cpus1.iq.iqSquashedOperandsExamined     60602078                       # Number of squashed operands that are examined and possibly removed from graph
system.switch_cpus1.iq.iqSquashedNonSpecRemoved         4351                       # Number of squashed non-spec instructions that were removed
system.switch_cpus1.iq.issued_per_cycle::samples    140247121                       # Number of insts issued each cycle
system.switch_cpus1.iq.issued_per_cycle::mean     1.018033                       # Number of insts issued each cycle
system.switch_cpus1.iq.issued_per_cycle::stdev     1.565127                       # Number of insts issued each cycle
system.switch_cpus1.iq.issued_per_cycle::underflows            0      0.00%      0.00% # Number of insts issued each cycle
system.switch_cpus1.iq.issued_per_cycle::0     80457436     57.37%     57.37% # Number of insts issued each cycle
system.switch_cpus1.iq.issued_per_cycle::1     25115546     17.91%     75.28% # Number of insts issued each cycle
system.switch_cpus1.iq.issued_per_cycle::2     11746511      8.38%     83.65% # Number of insts issued each cycle
system.switch_cpus1.iq.issued_per_cycle::3      8607354      6.14%     89.79% # Number of insts issued each cycle
system.switch_cpus1.iq.issued_per_cycle::4      7652866      5.46%     95.25% # Number of insts issued each cycle
system.switch_cpus1.iq.issued_per_cycle::5      3038499      2.17%     97.41% # Number of insts issued each cycle
system.switch_cpus1.iq.issued_per_cycle::6      3011440      2.15%     99.56% # Number of insts issued each cycle
system.switch_cpus1.iq.issued_per_cycle::7       466843      0.33%     99.89% # Number of insts issued each cycle
system.switch_cpus1.iq.issued_per_cycle::8       150626      0.11%    100.00% # Number of insts issued each cycle
system.switch_cpus1.iq.issued_per_cycle::overflows            0      0.00%    100.00% # Number of insts issued each cycle
system.switch_cpus1.iq.issued_per_cycle::min_value            0                       # Number of insts issued each cycle
system.switch_cpus1.iq.issued_per_cycle::max_value            8                       # Number of insts issued each cycle
system.switch_cpus1.iq.issued_per_cycle::total    140247121                       # Number of insts issued each cycle
system.switch_cpus1.iq.fu_full::No_OpClass            0      0.00%      0.00% # attempts to use FU when none available
system.switch_cpus1.iq.fu_full::IntAlu         573676     68.83%     68.83% # attempts to use FU when none available
system.switch_cpus1.iq.fu_full::IntMult             0      0.00%     68.83% # attempts to use FU when none available
system.switch_cpus1.iq.fu_full::IntDiv              0      0.00%     68.83% # attempts to use FU when none available
system.switch_cpus1.iq.fu_full::FloatAdd            0      0.00%     68.83% # attempts to use FU when none available
system.switch_cpus1.iq.fu_full::FloatCmp            0      0.00%     68.83% # attempts to use FU when none available
system.switch_cpus1.iq.fu_full::FloatCvt            0      0.00%     68.83% # attempts to use FU when none available
system.switch_cpus1.iq.fu_full::FloatMult            0      0.00%     68.83% # attempts to use FU when none available
system.switch_cpus1.iq.fu_full::FloatDiv            0      0.00%     68.83% # attempts to use FU when none available
system.switch_cpus1.iq.fu_full::FloatSqrt            0      0.00%     68.83% # attempts to use FU when none available
system.switch_cpus1.iq.fu_full::SimdAdd             0      0.00%     68.83% # attempts to use FU when none available
system.switch_cpus1.iq.fu_full::SimdAddAcc            0      0.00%     68.83% # attempts to use FU when none available
system.switch_cpus1.iq.fu_full::SimdAlu             0      0.00%     68.83% # attempts to use FU when none available
system.switch_cpus1.iq.fu_full::SimdCmp             0      0.00%     68.83% # attempts to use FU when none available
system.switch_cpus1.iq.fu_full::SimdCvt             0      0.00%     68.83% # attempts to use FU when none available
system.switch_cpus1.iq.fu_full::SimdMisc            0      0.00%     68.83% # attempts to use FU when none available
system.switch_cpus1.iq.fu_full::SimdMult            0      0.00%     68.83% # attempts to use FU when none available
system.switch_cpus1.iq.fu_full::SimdMultAcc            0      0.00%     68.83% # attempts to use FU when none available
system.switch_cpus1.iq.fu_full::SimdShift            0      0.00%     68.83% # attempts to use FU when none available
system.switch_cpus1.iq.fu_full::SimdShiftAcc            0      0.00%     68.83% # attempts to use FU when none available
system.switch_cpus1.iq.fu_full::SimdSqrt            0      0.00%     68.83% # attempts to use FU when none available
system.switch_cpus1.iq.fu_full::SimdFloatAdd            0      0.00%     68.83% # attempts to use FU when none available
system.switch_cpus1.iq.fu_full::SimdFloatAlu            0      0.00%     68.83% # attempts to use FU when none available
system.switch_cpus1.iq.fu_full::SimdFloatCmp            0      0.00%     68.83% # attempts to use FU when none available
system.switch_cpus1.iq.fu_full::SimdFloatCvt            0      0.00%     68.83% # attempts to use FU when none available
system.switch_cpus1.iq.fu_full::SimdFloatDiv            0      0.00%     68.83% # attempts to use FU when none available
system.switch_cpus1.iq.fu_full::SimdFloatMisc            0      0.00%     68.83% # attempts to use FU when none available
system.switch_cpus1.iq.fu_full::SimdFloatMult            0      0.00%     68.83% # attempts to use FU when none available
system.switch_cpus1.iq.fu_full::SimdFloatMultAcc            0      0.00%     68.83% # attempts to use FU when none available
system.switch_cpus1.iq.fu_full::SimdFloatSqrt            0      0.00%     68.83% # attempts to use FU when none available
system.switch_cpus1.iq.fu_full::MemRead        115232     13.83%     82.66% # attempts to use FU when none available
system.switch_cpus1.iq.fu_full::MemWrite       144535     17.34%    100.00% # attempts to use FU when none available
system.switch_cpus1.iq.fu_full::IprAccess            0      0.00%    100.00% # attempts to use FU when none available
system.switch_cpus1.iq.fu_full::InstPrefetch            0      0.00%    100.00% # attempts to use FU when none available
system.switch_cpus1.iq.FU_type_0::No_OpClass            0      0.00%      0.00% # Type of FU issued
system.switch_cpus1.iq.FU_type_0::IntAlu    119837532     83.93%     83.93% # Type of FU issued
system.switch_cpus1.iq.FU_type_0::IntMult      2146430      1.50%     85.44% # Type of FU issued
system.switch_cpus1.iq.FU_type_0::IntDiv            0      0.00%     85.44% # Type of FU issued
system.switch_cpus1.iq.FU_type_0::FloatAdd            0      0.00%     85.44% # Type of FU issued
system.switch_cpus1.iq.FU_type_0::FloatCmp            0      0.00%     85.44% # Type of FU issued
system.switch_cpus1.iq.FU_type_0::FloatCvt            0      0.00%     85.44% # Type of FU issued
system.switch_cpus1.iq.FU_type_0::FloatMult            0      0.00%     85.44% # Type of FU issued
system.switch_cpus1.iq.FU_type_0::FloatDiv            0      0.00%     85.44% # Type of FU issued
system.switch_cpus1.iq.FU_type_0::FloatSqrt            0      0.00%     85.44% # Type of FU issued
system.switch_cpus1.iq.FU_type_0::SimdAdd            0      0.00%     85.44% # Type of FU issued
system.switch_cpus1.iq.FU_type_0::SimdAddAcc            0      0.00%     85.44% # Type of FU issued
system.switch_cpus1.iq.FU_type_0::SimdAlu            0      0.00%     85.44% # Type of FU issued
system.switch_cpus1.iq.FU_type_0::SimdCmp            0      0.00%     85.44% # Type of FU issued
system.switch_cpus1.iq.FU_type_0::SimdCvt            0      0.00%     85.44% # Type of FU issued
system.switch_cpus1.iq.FU_type_0::SimdMisc            0      0.00%     85.44% # Type of FU issued
system.switch_cpus1.iq.FU_type_0::SimdMult            0      0.00%     85.44% # Type of FU issued
system.switch_cpus1.iq.FU_type_0::SimdMultAcc            0      0.00%     85.44% # Type of FU issued
system.switch_cpus1.iq.FU_type_0::SimdShift            0      0.00%     85.44% # Type of FU issued
system.switch_cpus1.iq.FU_type_0::SimdShiftAcc            0      0.00%     85.44% # Type of FU issued
system.switch_cpus1.iq.FU_type_0::SimdSqrt            0      0.00%     85.44% # Type of FU issued
system.switch_cpus1.iq.FU_type_0::SimdFloatAdd            0      0.00%     85.44% # Type of FU issued
system.switch_cpus1.iq.FU_type_0::SimdFloatAlu            0      0.00%     85.44% # Type of FU issued
system.switch_cpus1.iq.FU_type_0::SimdFloatCmp            0      0.00%     85.44% # Type of FU issued
system.switch_cpus1.iq.FU_type_0::SimdFloatCvt            0      0.00%     85.44% # Type of FU issued
system.switch_cpus1.iq.FU_type_0::SimdFloatDiv            0      0.00%     85.44% # Type of FU issued
system.switch_cpus1.iq.FU_type_0::SimdFloatMisc        16808      0.01%     85.45% # Type of FU issued
system.switch_cpus1.iq.FU_type_0::SimdFloatMult            0      0.00%     85.45% # Type of FU issued
system.switch_cpus1.iq.FU_type_0::SimdFloatMultAcc            0      0.00%     85.45% # Type of FU issued
system.switch_cpus1.iq.FU_type_0::SimdFloatSqrt            0      0.00%     85.45% # Type of FU issued
system.switch_cpus1.iq.FU_type_0::MemRead     13479367      9.44%     94.89% # Type of FU issued
system.switch_cpus1.iq.FU_type_0::MemWrite      7296001      5.11%    100.00% # Type of FU issued
system.switch_cpus1.iq.FU_type_0::IprAccess            0      0.00%    100.00% # Type of FU issued
system.switch_cpus1.iq.FU_type_0::InstPrefetch            0      0.00%    100.00% # Type of FU issued
system.switch_cpus1.iq.FU_type_0::total     142776138                       # Type of FU issued
system.switch_cpus1.iq.rate                  0.989510                       # Inst issue rate
system.switch_cpus1.iq.fu_busy_cnt             833443                       # FU busy when requested
system.switch_cpus1.iq.fu_busy_rate          0.005837                       # FU busy rate (busy events/executed inst)
system.switch_cpus1.iq.int_inst_queue_reads    426824206                       # Number of integer instruction queue reads
system.switch_cpus1.iq.int_inst_queue_writes    181706961                       # Number of integer instruction queue writes
system.switch_cpus1.iq.int_inst_queue_wakeup_accesses    139185554                       # Number of integer instruction queue wakeup accesses
system.switch_cpus1.iq.fp_inst_queue_reads            0                       # Number of floating instruction queue reads
system.switch_cpus1.iq.fp_inst_queue_writes            0                       # Number of floating instruction queue writes
system.switch_cpus1.iq.fp_inst_queue_wakeup_accesses            0                       # Number of floating instruction queue wakeup accesses
system.switch_cpus1.iq.int_alu_accesses     143609581                       # Number of integer alu accesses
system.switch_cpus1.iq.fp_alu_accesses              0                       # Number of floating point alu accesses
system.switch_cpus1.iew.lsq.thread0.forwLoads       352582                       # Number of loads that had data forwarded from stores
system.switch_cpus1.iew.lsq.thread0.invAddrLoads            0                       # Number of loads ignored due to an invalid address
system.switch_cpus1.iew.lsq.thread0.squashedLoads      3662182                       # Number of loads squashed
system.switch_cpus1.iew.lsq.thread0.ignoredResponses         1061                       # Number of memory responses ignored because the instruction is squashed
system.switch_cpus1.iew.lsq.thread0.memOrderViolation          429                       # Number of memory ordering violations
system.switch_cpus1.iew.lsq.thread0.squashedStores       224107                       # Number of stores squashed
system.switch_cpus1.iew.lsq.thread0.invAddrSwpfs            0                       # Number of software prefetches ignored due to an invalid address
system.switch_cpus1.iew.lsq.thread0.blockedLoads            0                       # Number of blocked loads due to partial load-store forwarding
system.switch_cpus1.iew.lsq.thread0.rescheduledLoads            0                       # Number of loads that were rescheduled
system.switch_cpus1.iew.lsq.thread0.cacheBlocked            0                       # Number of times an access to memory failed due to the cache being blocked
system.switch_cpus1.iew.iewIdleCycles               0                       # Number of cycles IEW is idle
system.switch_cpus1.iew.iewSquashCycles       4543463                       # Number of cycles IEW is squashing
system.switch_cpus1.iew.iewBlockCycles         800390                       # Number of cycles IEW is blocking
system.switch_cpus1.iew.iewUnblockCycles        92183                       # Number of cycles IEW is unblocking
system.switch_cpus1.iew.iewDispatchedInsts    153711676                       # Number of instructions dispatched to IQ
system.switch_cpus1.iew.iewDispSquashedInsts        51093                       # Number of squashed instructions skipped by dispatch
system.switch_cpus1.iew.iewDispLoadInsts     15082517                       # Number of dispatched load instructions
system.switch_cpus1.iew.iewDispStoreInsts      7366438                       # Number of dispatched store instructions
system.switch_cpus1.iew.iewDispNonSpecInsts        21159                       # Number of dispatched non-speculative instructions
system.switch_cpus1.iew.iewIQFullEvents         80574                       # Number of times the IQ has become full, causing a stall
system.switch_cpus1.iew.iewLSQFullEvents            0                       # Number of times the LSQ has become full, causing a stall
system.switch_cpus1.iew.memOrderViolationEvents          429                       # Number of memory order violations
system.switch_cpus1.iew.predictedTakenIncorrect      1123754                       # Number of branches that were predicted taken incorrectly
system.switch_cpus1.iew.predictedNotTakenIncorrect      1175049                       # Number of branches that were predicted not taken incorrectly
system.switch_cpus1.iew.branchMispredicts      2298803                       # Number of branch mispredicts detected at execute
system.switch_cpus1.iew.iewExecutedInsts    140205523                       # Number of executed instructions
system.switch_cpus1.iew.iewExecLoadInsts     12955008                       # Number of load instructions executed
system.switch_cpus1.iew.iewExecSquashedInsts      2570613                       # Number of squashed instructions skipped in execute
system.switch_cpus1.iew.exec_swp                    0                       # number of swp insts executed
system.switch_cpus1.iew.exec_nop                    0                       # number of nop insts executed
system.switch_cpus1.iew.exec_refs            20249249                       # number of memory reference insts executed
system.switch_cpus1.iew.exec_branches        19916465                       # Number of branches executed
system.switch_cpus1.iew.exec_stores           7294241                       # Number of stores executed
system.switch_cpus1.iew.exec_rate            0.971694                       # Inst execution rate
system.switch_cpus1.iew.wb_sent             139368921                       # cumulative count of insts sent to commit
system.switch_cpus1.iew.wb_count            139185554                       # cumulative count of insts written-back
system.switch_cpus1.iew.wb_producers         83479705                       # num instructions producing a value
system.switch_cpus1.iew.wb_consumers        231250709                       # num instructions consuming a value
system.switch_cpus1.iew.wb_penalized                0                       # number of instrctions required to write to 'other' IQ
system.switch_cpus1.iew.wb_rate              0.964625                       # insts written-back per cycle
system.switch_cpus1.iew.wb_fanout            0.360992                       # average fanout of values written-back
system.switch_cpus1.iew.wb_penalized_rate            0                       # fraction of instructions written-back that wrote to 'other' IQ
system.switch_cpus1.commit.commitCommittedInsts    101659172                       # The number of committed instructions
system.switch_cpus1.commit.commitCommittedOps    124847160                       # The number of committed instructions
system.switch_cpus1.commit.commitSquashedInsts     28865753                       # The number of squashed insts skipped by commit
system.switch_cpus1.commit.commitNonSpecStalls        33616                       # The number of times commit has been forced to stall to communicate backwards
system.switch_cpus1.commit.branchMispredicts      2066282                       # The number of times a branch was mispredicted
system.switch_cpus1.commit.committed_per_cycle::samples    135703658                       # Number of insts commited each cycle
system.switch_cpus1.commit.committed_per_cycle::mean     0.919998                       # Number of insts commited each cycle
system.switch_cpus1.commit.committed_per_cycle::stdev     1.693237                       # Number of insts commited each cycle
system.switch_cpus1.commit.committed_per_cycle::underflows            0      0.00%      0.00% # Number of insts commited each cycle
system.switch_cpus1.commit.committed_per_cycle::0     84504506     62.27%     62.27% # Number of insts commited each cycle
system.switch_cpus1.commit.committed_per_cycle::1     23949278     17.65%     79.92% # Number of insts commited each cycle
system.switch_cpus1.commit.committed_per_cycle::2     10557352      7.78%     87.70% # Number of insts commited each cycle
system.switch_cpus1.commit.committed_per_cycle::3      5534604      4.08%     91.78% # Number of insts commited each cycle
system.switch_cpus1.commit.committed_per_cycle::4      4406227      3.25%     95.02% # Number of insts commited each cycle
system.switch_cpus1.commit.committed_per_cycle::5      1587948      1.17%     96.19% # Number of insts commited each cycle
system.switch_cpus1.commit.committed_per_cycle::6      1344587      0.99%     97.19% # Number of insts commited each cycle
system.switch_cpus1.commit.committed_per_cycle::7      1006052      0.74%     97.93% # Number of insts commited each cycle
system.switch_cpus1.commit.committed_per_cycle::8      2813104      2.07%    100.00% # Number of insts commited each cycle
system.switch_cpus1.commit.committed_per_cycle::overflows            0      0.00%    100.00% # Number of insts commited each cycle
system.switch_cpus1.commit.committed_per_cycle::min_value            0                       # Number of insts commited each cycle
system.switch_cpus1.commit.committed_per_cycle::max_value            8                       # Number of insts commited each cycle
system.switch_cpus1.commit.committed_per_cycle::total    135703658                       # Number of insts commited each cycle
system.switch_cpus1.commit.committedInsts    101659172                       # Number of instructions committed
system.switch_cpus1.commit.committedOps     124847160                       # Number of ops (including micro ops) committed
system.switch_cpus1.commit.swp_count                0                       # Number of s/w prefetches committed
system.switch_cpus1.commit.refs              18562665                       # Number of memory references committed
system.switch_cpus1.commit.loads             11420334                       # Number of loads committed
system.switch_cpus1.commit.membars              16808                       # Number of memory barriers committed
system.switch_cpus1.commit.branches          17938160                       # Number of branches committed
system.switch_cpus1.commit.fp_insts                 0                       # Number of committed floating point instructions.
system.switch_cpus1.commit.int_insts        112491775                       # Number of committed integer instructions.
system.switch_cpus1.commit.function_calls      2541667                       # Number of function calls committed.
system.switch_cpus1.commit.bw_lim_events      2813104                       # number cycles where commit BW limit reached
system.switch_cpus1.commit.bw_limited               0                       # number of insts not committed due to BW limits
system.switch_cpus1.rob.rob_reads           286603467                       # The number of ROB reads
system.switch_cpus1.rob.rob_writes          311969531                       # The number of ROB writes
system.switch_cpus1.timesIdled                  73536                       # Number of times that the entire CPU went into an idle state and unscheduled itself
system.switch_cpus1.idleCycles                4042615                       # Total number of cycles that the CPU has spent unscheduled due to idling
system.switch_cpus1.committedInsts          101659172                       # Number of Instructions Simulated
system.switch_cpus1.committedOps            124847160                       # Number of Ops (including micro ops) Simulated
system.switch_cpus1.committedInsts_total    101659172                       # Number of Instructions Simulated
system.switch_cpus1.cpi                      1.419348                       # CPI: Cycles Per Instruction
system.switch_cpus1.cpi_total                1.419348                       # CPI: Total CPI of All Threads
system.switch_cpus1.ipc                      0.704549                       # IPC: Instructions Per Cycle
system.switch_cpus1.ipc_total                0.704549                       # IPC: Total IPC of All Threads
[...]
system.cpu1.icache.ReadReq_miss_latency::total      2814142                       # number of ReadReq miss cycles
system.cpu1.icache.demand_miss_latency::switch_cpus1.inst      2814142                       # number of demand (read+write) miss cycles
system.cpu1.icache.demand_miss_latency::total      2814142                       # number of demand (read+write) miss cycles
system.cpu1.icache.overall_miss_latency::switch_cpus1.inst      2814142                       # number of overall miss cycles
system.cpu1.icache.overall_miss_latency::total      2814142                       # number of overall miss cycles
system.cpu1.icache.ReadReq_accesses::switch_cpus1.inst     12116987                       # number of ReadReq accesses(hits+misses)
system.cpu1.icache.ReadReq_accesses::total     12116987                       # number of ReadReq accesses(hits+misses)
system.cpu1.icache.demand_accesses::switch_cpus1.inst     12116987                       # number of demand (read+write) accesses
system.cpu1.icache.demand_accesses::total     12116987                       # number of demand (read+write) accesses
system.cpu1.icache.overall_accesses::switch_cpus1.inst     12116987                       # number of overall (read+write) accesses
system.cpu1.icache.overall_accesses::total     12116987                       # number of overall (read+write) accesses
system.cpu1.icache.ReadReq_miss_rate::switch_cpus1.inst     0.000001                       # miss rate for ReadReq accesses
system.cpu1.icache.ReadReq_miss_rate::total     0.000001                       # miss rate for ReadReq accesses
system.cpu1.icache.demand_miss_rate::switch_cpus1.inst     0.000001                       # miss rate for demand accesses
system.cpu1.icache.demand_miss_rate::total     0.000001                       # miss rate for demand accesses
system.cpu1.icache.overall_miss_rate::switch_cpus1.inst     0.000001                       # miss rate for overall accesses
system.cpu1.icache.overall_miss_rate::total     0.000001                       # miss rate for overall accesses
system.cpu1.icache.ReadReq_avg_miss_latency::switch_cpus1.inst 165537.764706                       # average ReadReq miss latency
system.cpu1.icache.ReadReq_avg_miss_latency::total 165537.764706                       # average ReadReq miss latency
system.cpu1.icache.demand_avg_miss_latency::switch_cpus1.inst 165537.764706                       # average overall miss latency
system.cpu1.icache.demand_avg_miss_latency::total 165537.764706                       # average overall miss latency
system.cpu1.icache.overall_avg_miss_latency::switch_cpus1.inst 165537.764706                       # average overall miss latency
system.cpu1.icache.overall_avg_miss_latency::total 165537.764706                       # average overall miss latency
system.cpu1.icache.blocked_cycles::no_mshrs            0                       # number of cycles access was blocked
system.cpu1.icache.blocked_cycles::no_targets            0                       # number of cycles access was blocked
system.cpu1.icache.blocked::no_mshrs                0                       # number of cycles access was blocked
system.cpu1.icache.blocked::no_targets              0                       # number of cycles access was blocked
system.cpu1.icache.avg_blocked_cycles::no_mshrs          nan                       # average number of cycles each access was blocked
system.cpu1.icache.avg_blocked_cycles::no_targets          nan                       # average number of cycles each access was blocked
system.cpu1.icache.fast_writes                      0                       # number of fast writes performed
system.cpu1.icache.cache_copies                     0                       # number of cache copies performed
system.cpu1.icache.ReadReq_mshr_hits::switch_cpus1.inst            4                       # number of ReadReq MSHR hits
system.cpu1.icache.ReadReq_mshr_hits::total            4                       # number of ReadReq MSHR hits
system.cpu1.icache.demand_mshr_hits::switch_cpus1.inst            4                       # number of demand (read+write) MSHR hits
system.cpu1.icache.demand_mshr_hits::total            4                       # number of demand (read+write) MSHR hits
system.cpu1.icache.overall_mshr_hits::switch_cpus1.inst            4                       # number of overall MSHR hits
system.cpu1.icache.overall_mshr_hits::total            4                       # number of overall MSHR hits
system.cpu1.icache.ReadReq_mshr_misses::switch_cpus1.inst           13                       # number of ReadReq MSHR misses
system.cpu1.icache.ReadReq_mshr_misses::total           13                       # number of ReadReq MSHR misses
system.cpu1.icache.demand_mshr_misses::switch_cpus1.inst           13                       # number of demand (read+write) MSHR misses
system.cpu1.icache.demand_mshr_misses::total           13                       # number of demand (read+write) MSHR misses
system.cpu1.icache.overall_mshr_misses::switch_cpus1.inst           13                       # number of overall MSHR misses
system.cpu1.icache.overall_mshr_misses::total           13                       # number of overall MSHR misses
system.cpu1.icache.ReadReq_mshr_miss_latency::switch_cpus1.inst      2199607                       # number of ReadReq MSHR miss cycles
system.cpu1.icache.ReadReq_mshr_miss_latency::total      2199607                       # number of ReadReq MSHR miss cycles
system.cpu1.icache.demand_mshr_miss_latency::switch_cpus1.inst      2199607                       # number of demand (read+write) MSHR miss cycles
system.cpu1.icache.demand_mshr_miss_latency::total      2199607                       # number of demand (read+write) MSHR miss cycles
system.cpu1.icache.overall_mshr_miss_latency::switch_cpus1.inst      2199607                       # number of overall MSHR miss cycles
system.cpu1.icache.overall_mshr_miss_latency::total      2199607                       # number of overall MSHR miss cycles
system.cpu1.icache.ReadReq_mshr_miss_rate::switch_cpus1.inst     0.000001                       # mshr miss rate for ReadReq accesses
system.cpu1.icache.ReadReq_mshr_miss_rate::total     0.000001                       # mshr miss rate for ReadReq accesses
system.cpu1.icache.demand_mshr_miss_rate::switch_cpus1.inst     0.000001                       # mshr miss rate for demand accesses
system.cpu1.icache.demand_mshr_miss_rate::total     0.000001                       # mshr miss rate for demand accesses
system.cpu1.icache.overall_mshr_miss_rate::switch_cpus1.inst     0.000001                       # mshr miss rate for overall accesses
system.cpu1.icache.overall_mshr_miss_rate::total     0.000001                       # mshr miss rate for overall accesses
system.cpu1.icache.ReadReq_avg_mshr_miss_latency::switch_cpus1.inst 169200.538462                       # average ReadReq mshr miss latency
system.cpu1.icache.ReadReq_avg_mshr_miss_latency::total 169200.538462                       # average ReadReq mshr miss latency
system.cpu1.icache.demand_avg_mshr_miss_latency::switch_cpus1.inst 169200.538462                       # average overall mshr miss latency
system.cpu1.icache.demand_avg_mshr_miss_latency::total 169200.538462                       # average overall mshr miss latency
system.cpu1.icache.overall_avg_mshr_miss_latency::switch_cpus1.inst 169200.538462                       # average overall mshr miss latency
system.cpu1.icache.overall_avg_mshr_miss_latency::total 169200.538462                       # average overall mshr miss latency
system.cpu1.icache.no_allocate_misses               0                       # Number of misses that were no-allocate
system.cpu1.dcache.replacements                 74289                       # number of replacements
system.cpu1.dcache.tagsinuse                      256                       # Cycle average of tags in use
system.cpu1.dcache.total_refs               180632560                       # Total number of references to valid blocks.
system.cpu1.dcache.sampled_refs                 74545                       # Sample count of references to valid blocks.
system.cpu1.dcache.avg_refs               2423.134483                       # Average number of references to valid blocks.
system.cpu1.dcache.warmup_cycle                     0                       # Cycle when the warmup percentage was hit.
system.cpu1.dcache.occ_blocks::switch_cpus1.data   230.745288                       # Average occupied blocks per requestor
system.cpu1.dcache.occ_blocks::cpu1.data    25.254712                       # Average occupied blocks per requestor
system.cpu1.dcache.occ_percent::switch_cpus1.data     0.901349                       # Average percentage of cache occupancy
system.cpu1.dcache.occ_percent::cpu1.data     0.098651                       # Average percentage of cache occupancy
system.cpu1.dcache.occ_percent::total               1                       # Average percentage of cache occupancy
system.cpu1.dcache.ReadReq_hits::switch_cpus1.data      9752617                       # number of ReadReq hits
system.cpu1.dcache.ReadReq_hits::total        9752617                       # number of ReadReq hits
system.cpu1.dcache.WriteReq_hits::switch_cpus1.data      7108715                       # number of WriteReq hits
system.cpu1.dcache.WriteReq_hits::total       7108715                       # number of WriteReq hits
system.cpu1.dcache.LoadLockedReq_hits::switch_cpus1.data        20860                       # number of LoadLockedReq hits
system.cpu1.dcache.LoadLockedReq_hits::total        20860                       # number of LoadLockedReq hits
system.cpu1.dcache.StoreCondReq_hits::switch_cpus1.data        16808                       # number of StoreCondReq hits
system.cpu1.dcache.StoreCondReq_hits::total        16808                       # number of StoreCondReq hits
system.cpu1.dcache.demand_hits::switch_cpus1.data     16861332                       # number of demand (read+write) hits
system.cpu1.dcache.demand_hits::total        16861332                       # number of demand (read+write) hits
system.cpu1.dcache.overall_hits::switch_cpus1.data     16861332                       # number of overall hits
system.cpu1.dcache.overall_hits::total       16861332                       # number of overall hits
system.cpu1.dcache.ReadReq_misses::switch_cpus1.data       178480                       # number of ReadReq misses
system.cpu1.dcache.ReadReq_misses::total       178480                       # number of ReadReq misses
system.cpu1.dcache.demand_misses::switch_cpus1.data       178480                       # number of demand (read+write) misses
system.cpu1.dcache.demand_misses::total        178480                       # number of demand (read+write) misses
system.cpu1.dcache.overall_misses::switch_cpus1.data       178480                       # number of overall misses
system.cpu1.dcache.overall_misses::total       178480                       # number of overall misses
system.cpu1.dcache.ReadReq_miss_latency::switch_cpus1.data  22154177432                       # number of ReadReq miss cycles
system.cpu1.dcache.ReadReq_miss_latency::total  22154177432                       # number of ReadReq miss cycles
system.cpu1.dcache.demand_miss_latency::switch_cpus1.data  22154177432                       # number of demand (read+write) miss cycles
system.cpu1.dcache.demand_miss_latency::total  22154177432                       # number of demand (read+write) miss cycles
system.cpu1.dcache.overall_miss_latency::switch_cpus1.data  22154177432                       # number of overall miss cycles
system.cpu1.dcache.overall_miss_latency::total  22154177432                       # number of overall miss cycles
system.cpu1.dcache.ReadReq_accesses::switch_cpus1.data      9931097                       # number of ReadReq accesses(hits+misses)
system.cpu1.dcache.ReadReq_accesses::total      9931097                       # number of ReadReq accesses(hits+misses)
system.cpu1.dcache.WriteReq_accesses::switch_cpus1.data      7108715                       # number of WriteReq accesses(hits+misses)
system.cpu1.dcache.WriteReq_accesses::total      7108715                       # number of WriteReq accesses(hits+misses)
system.cpu1.dcache.LoadLockedReq_accesses::switch_cpus1.data        20860                       # number of LoadLockedReq accesses(hits+misses)
system.cpu1.dcache.LoadLockedReq_accesses::total        20860                       # number of LoadLockedReq accesses(hits+misses)
system.cpu1.dcache.StoreCondReq_accesses::switch_cpus1.data        16808                       # number of StoreCondReq accesses(hits+misses)
system.cpu1.dcache.StoreCondReq_accesses::total        16808                       # number of StoreCondReq accesses(hits+misses)
system.cpu1.dcache.demand_accesses::switch_cpus1.data     17039812                       # number of demand (read+write) accesses
system.cpu1.dcache.demand_accesses::total     17039812                       # number of demand (read+write) accesses
system.cpu1.dcache.overall_accesses::switch_cpus1.data     17039812                       # number of overall (read+write) accesses
system.cpu1.dcache.overall_accesses::total     17039812                       # number of overall (read+write) accesses
system.cpu1.dcache.ReadReq_miss_rate::switch_cpus1.data     0.017972                       # miss rate for ReadReq accesses
system.cpu1.dcache.ReadReq_miss_rate::total     0.017972                       # miss rate for ReadReq accesses
system.cpu1.dcache.demand_miss_rate::switch_cpus1.data     0.010474                       # miss rate for demand accesses
system.cpu1.dcache.demand_miss_rate::total     0.010474                       # miss rate for demand accesses
system.cpu1.dcache.overall_miss_rate::switch_cpus1.data     0.010474                       # miss rate for overall accesses
system.cpu1.dcache.overall_miss_rate::total     0.010474                       # miss rate for overall accesses
system.cpu1.dcache.ReadReq_avg_miss_latency::switch_cpus1.data 124126.946616                       # average ReadReq miss latency
system.cpu1.dcache.ReadReq_avg_miss_latency::total 124126.946616                       # average ReadReq miss latency
system.cpu1.dcache.demand_avg_miss_latency::switch_cpus1.data 124126.946616                       # average overall miss latency
system.cpu1.dcache.demand_avg_miss_latency::total 124126.946616                       # average overall miss latency
system.cpu1.dcache.overall_avg_miss_latency::switch_cpus1.data 124126.946616                       # average overall miss latency
system.cpu1.dcache.overall_avg_miss_latency::total 124126.946616                       # average overall miss latency
system.cpu1.dcache.blocked_cycles::no_mshrs            0                       # number of cycles access was blocked
system.cpu1.dcache.blocked_cycles::no_targets            0                       # number of cycles access was blocked
system.cpu1.dcache.blocked::no_mshrs                0                       # number of cycles access was blocked
system.cpu1.dcache.blocked::no_targets              0                       # number of cycles access was blocked
system.cpu1.dcache.avg_blocked_cycles::no_mshrs          nan                       # average number of cycles each access was blocked
system.cpu1.dcache.avg_blocked_cycles::no_targets          nan                       # average number of cycles each access was blocked
system.cpu1.dcache.fast_writes                      0                       # number of fast writes performed
system.cpu1.dcache.cache_copies                     0                       # number of cache copies performed
system.cpu1.dcache.writebacks::writebacks        11893                       # number of writebacks
system.cpu1.dcache.writebacks::total            11893                       # number of writebacks
system.cpu1.dcache.ReadReq_mshr_hits::switch_cpus1.data       104191                       # number of ReadReq MSHR hits
system.cpu1.dcache.ReadReq_mshr_hits::total       104191                       # number of ReadReq MSHR hits
system.cpu1.dcache.demand_mshr_hits::switch_cpus1.data       104191                       # number of demand (read+write) MSHR hits
system.cpu1.dcache.demand_mshr_hits::total       104191                       # number of demand (read+write) MSHR hits
system.cpu1.dcache.overall_mshr_hits::switch_cpus1.data       104191                       # number of overall MSHR hits
system.cpu1.dcache.overall_mshr_hits::total       104191                       # number of overall MSHR hits
system.cpu1.dcache.ReadReq_mshr_misses::switch_cpus1.data        74289                       # number of ReadReq MSHR misses
system.cpu1.dcache.ReadReq_mshr_misses::total        74289                       # number of ReadReq MSHR misses
system.cpu1.dcache.demand_mshr_misses::switch_cpus1.data        74289                       # number of demand (read+write) MSHR misses
system.cpu1.dcache.demand_mshr_misses::total        74289                       # number of demand (read+write) MSHR misses
system.cpu1.dcache.overall_mshr_misses::switch_cpus1.data        74289                       # number of overall MSHR misses
system.cpu1.dcache.overall_mshr_misses::total        74289                       # number of overall MSHR misses
system.cpu1.dcache.ReadReq_mshr_miss_latency::switch_cpus1.data   8654717225                       # number of ReadReq MSHR miss cycles
system.cpu1.dcache.ReadReq_mshr_miss_latency::total   8654717225                       # number of ReadReq MSHR miss cycles
system.cpu1.dcache.demand_mshr_miss_latency::switch_cpus1.data   8654717225                       # number of demand (read+write) MSHR miss cycles
system.cpu1.dcache.demand_mshr_miss_latency::total   8654717225                       # number of demand (read+write) MSHR miss cycles
system.cpu1.dcache.overall_mshr_miss_latency::switch_cpus1.data   8654717225                       # number of overall MSHR miss cycles
system.cpu1.dcache.overall_mshr_miss_latency::total   8654717225                       # number of overall MSHR miss cycles
system.cpu1.dcache.ReadReq_mshr_miss_rate::switch_cpus1.data     0.007480                       # mshr miss rate for ReadReq accesses
system.cpu1.dcache.ReadReq_mshr_miss_rate::total     0.007480                       # mshr miss rate for ReadReq accesses
system.cpu1.dcache.demand_mshr_miss_rate::switch_cpus1.data     0.004360                       # mshr miss rate for demand accesses
system.cpu1.dcache.demand_mshr_miss_rate::total     0.004360                       # mshr miss rate for demand accesses
system.cpu1.dcache.overall_mshr_miss_rate::switch_cpus1.data     0.004360                       # mshr miss rate for overall accesses
system.cpu1.dcache.overall_mshr_miss_rate::total     0.004360                       # mshr miss rate for overall accesses
system.cpu1.dcache.ReadReq_avg_mshr_miss_latency::switch_cpus1.data 116500.655884                       # average ReadReq mshr miss latency
system.cpu1.dcache.ReadReq_avg_mshr_miss_latency::total 116500.655884                       # average ReadReq mshr miss latency
system.cpu1.dcache.demand_avg_mshr_miss_latency::switch_cpus1.data 116500.655884                       # average overall mshr miss latency
system.cpu1.dcache.demand_avg_mshr_miss_latency::total 116500.655884                       # average overall mshr miss latency
system.cpu1.dcache.overall_avg_mshr_miss_latency::switch_cpus1.data 116500.655884                       # average overall mshr miss latency
system.cpu1.dcache.overall_avg_mshr_miss_latency::total 116500.655884                       # average overall mshr miss latency
system.cpu1.dcache.no_allocate_misses               0                       # Number of misses that were no-allocate

---------- End Simulation Statistics   ----------
