
---------- Begin Simulation Statistics ----------
sim_seconds                                  0.003571                       # Number of seconds simulated
sim_ticks                                  3571128369                       # Number of ticks simulated
final_tick                               530537491554                       # Number of ticks from beginning of simulation (restored from checkpoints and never reset)
sim_freq                                 1000000000000                       # Frequency of simulated ticks
host_inst_rate                                  86847                       # Simulator instruction rate (inst/s)
host_op_rate                                   109718                       # Simulator op (including micro ops) rate (op/s)
host_tick_rate                                 307071                       # Simulator tick rate (ticks/s)
host_mem_usage                               16890228                       # Number of bytes of host memory used
host_seconds                                 11629.64                       # Real time elapsed on the host
sim_insts                                  1010000001                       # Number of instructions simulated
sim_ops                                    1275980947                       # Number of ops (including micro ops) simulated
system.physmem.bytes_read::switch_cpus.inst         1792                       # Number of bytes read from this memory
system.physmem.bytes_read::switch_cpus.data       154880                       # Number of bytes read from this memory
system.physmem.bytes_read::total               156672                       # Number of bytes read from this memory
system.physmem.bytes_inst_read::switch_cpus.inst         1792                       # Number of instructions bytes read from this memory
system.physmem.bytes_inst_read::total            1792                       # Number of instructions bytes read from this memory
system.physmem.bytes_written::writebacks        97792                       # Number of bytes written to this memory
system.physmem.bytes_written::total             97792                       # Number of bytes written to this memory
system.physmem.num_reads::switch_cpus.inst           14                       # Number of read requests responded to by this memory
system.physmem.num_reads::switch_cpus.data         1210                       # Number of read requests responded to by this memory
system.physmem.num_reads::total                  1224                       # Number of read requests responded to by this memory
system.physmem.num_writes::writebacks             764                       # Number of write requests responded to by this memory
system.physmem.num_writes::functional               0                       # Number of write requests responded to by this memory
system.physmem.num_writes::interrupt                0                       # Number of write requests responded to by this memory
system.physmem.num_writes::switch_cpus.dtb.walker            0                       # Number of write requests responded to by this memory
system.physmem.num_writes::switch_cpus.itb.walker            0                       # Number of write requests responded to by this memory
system.physmem.num_writes::switch_cpus.inst            0                       # Number of write requests responded to by this memory
system.physmem.num_writes::switch_cpus.data            0                       # Number of write requests responded to by this memory
system.physmem.num_writes::cpu.dtb.walker            0                       # Number of write requests responded to by this memory
system.physmem.num_writes::cpu.itb.walker            0                       # Number of write requests responded to by this memory
system.physmem.num_writes::cpu.inst                 0                       # Number of write requests responded to by this memory
system.physmem.num_writes::cpu.data                 0                       # Number of write requests responded to by this memory
system.physmem.num_writes::total                  764                       # Number of write requests responded to by this memory
system.physmem.bw_read::switch_cpus.inst       501802                       # Total read bandwidth from this memory (bytes/s)
system.physmem.bw_read::switch_cpus.data     43370046                       # Total read bandwidth from this memory (bytes/s)
system.physmem.bw_read::total                43871848                       # Total read bandwidth from this memory (bytes/s)
system.physmem.bw_inst_read::switch_cpus.inst       501802                       # Instruction read bandwidth from this memory (bytes/s)
system.physmem.bw_inst_read::total             501802                       # Instruction read bandwidth from this memory (bytes/s)
system.physmem.bw_write::writebacks          27384062                       # Write bandwidth from this memory (bytes/s)
system.physmem.bw_write::total               27384062                       # Write bandwidth from this memory (bytes/s)
system.physmem.bw_total::writebacks          27384062                       # Total bandwidth to/from this memory (bytes/s)
system.physmem.bw_total::switch_cpus.inst       501802                       # Total bandwidth to/from this memory (bytes/s)
system.physmem.bw_total::switch_cpus.data     43370046                       # Total bandwidth to/from this memory (bytes/s)
system.physmem.bw_total::total               71255910                       # Total bandwidth to/from this memory (bytes/s)
system.switch_cpus.dtb.inst_hits                    0                       # ITB inst hits
system.switch_cpus.dtb.inst_misses                  0                       # ITB inst misses
system.switch_cpus.dtb.read_hits                    0                       # DTB read hits
system.switch_cpus.dtb.read_misses                  0                       # DTB read misses
system.switch_cpus.dtb.write_hits                   0                       # DTB write hits
system.switch_cpus.dtb.write_misses                 0                       # DTB write misses
system.switch_cpus.dtb.flush_tlb                    0                       # Number of times complete TLB was flushed
system.switch_cpus.dtb.flush_tlb_mva                0                       # Number of times TLB was flushed by MVA
system.switch_cpus.dtb.flush_tlb_mva_asid            0                       # Number of times TLB was flushed by MVA & ASID
system.switch_cpus.dtb.flush_tlb_asid               0                       # Number of times TLB was flushed by ASID
system.switch_cpus.dtb.flush_entries                0                       # Number of entries that have been flushed from TLB
system.switch_cpus.dtb.align_faults                 0                       # Number of TLB faults due to alignment restrictions
system.switch_cpus.dtb.prefetch_faults              0                       # Number of TLB faults due to prefetch
system.switch_cpus.dtb.domain_faults                0                       # Number of TLB faults due to domain restrictions
system.switch_cpus.dtb.perms_faults                 0                       # Number of TLB faults due to permissions restrictions
system.switch_cpus.dtb.read_accesses                0                       # DTB read accesses
system.switch_cpus.dtb.write_accesses               0                       # DTB write accesses
system.switch_cpus.dtb.inst_accesses                0                       # ITB inst accesses
system.switch_cpus.dtb.hits                         0                       # DTB hits
system.switch_cpus.dtb.misses                       0                       # DTB misses
system.switch_cpus.dtb.accesses                     0                       # DTB accesses
system.switch_cpus.itb.inst_hits                    0                       # ITB inst hits
system.switch_cpus.itb.inst_misses                  0                       # ITB inst misses
system.switch_cpus.itb.read_hits                    0                       # DTB read hits
system.switch_cpus.itb.read_misses                  0                       # DTB read misses
system.switch_cpus.itb.write_hits                   0                       # DTB write hits
system.switch_cpus.itb.write_misses                 0                       # DTB write misses
system.switch_cpus.itb.flush_tlb                    0                       # Number of times complete TLB was flushed
system.switch_cpus.itb.flush_tlb_mva                0                       # Number of times TLB was flushed by MVA
system.switch_cpus.itb.flush_tlb_mva_asid            0                       # Number of times TLB was flushed by MVA & ASID
system.switch_cpus.itb.flush_tlb_asid               0                       # Number of times TLB was flushed by ASID
system.switch_cpus.itb.flush_entries                0                       # Number of entries that have been flushed from TLB
system.switch_cpus.itb.align_faults                 0                       # Number of TLB faults due to alignment restrictions
system.switch_cpus.itb.prefetch_faults              0                       # Number of TLB faults due to prefetch
system.switch_cpus.itb.domain_faults                0                       # Number of TLB faults due to domain restrictions
system.switch_cpus.itb.perms_faults                 0                       # Number of TLB faults due to permissions restrictions
system.switch_cpus.itb.read_accesses                0                       # DTB read accesses
system.switch_cpus.itb.write_accesses               0                       # DTB write accesses
system.switch_cpus.itb.inst_accesses                0                       # ITB inst accesses
system.switch_cpus.itb.hits                         0                       # DTB hits
system.switch_cpus.itb.misses                       0                       # DTB misses
system.switch_cpus.itb.accesses                     0                       # DTB accesses
system.cpu.workload.num_syscalls                    0                       # Number of system calls
system.switch_cpus.numCycles                  8563858                       # number of cpu cycles simulated
system.switch_cpus.numWorkItemsStarted              0                       # number of work items this cpu started
system.switch_cpus.numWorkItemsCompleted            0                       # number of work items this cpu completed
system.switch_cpus.BPredUnit.lookups          3124830                       # Number of BP lookups
system.switch_cpus.BPredUnit.condPredicted      2539982                       # Number of conditional branches predicted
system.switch_cpus.BPredUnit.condIncorrect       215227                       # Number of conditional branches incorrect
system.switch_cpus.BPredUnit.BTBLookups       1316038                       # Number of BTB lookups
system.switch_cpus.BPredUnit.BTBHits          1213797                       # Number of BTB hits
system.switch_cpus.BPredUnit.BTBCorrect             0                       # Number of correct BTB predictions (this stat may not work properly.
system.switch_cpus.BPredUnit.usedRAS           328632                       # Number of times the RAS was used to get a target.
system.switch_cpus.BPredUnit.RASInCorrect         9236                       # Number of incorrect RAS predictions.
system.switch_cpus.fetch.icacheStallCycles      3134608                       # Number of cycles fetch is stalled on an Icache miss
system.switch_cpus.fetch.Insts               17312409                       # Number of instructions fetch has processed
system.switch_cpus.fetch.Branches             3124830                       # Number of branches that fetch encountered
system.switch_cpus.fetch.predictedBranches      1542429                       # Number of branches that fetch has predicted taken
system.switch_cpus.fetch.Cycles               3804918                       # Number of cycles fetch has run and was not squashing or blocked
system.switch_cpus.fetch.SquashCycles         1149179                       # Number of cycles fetch has spent squashing
system.switch_cpus.fetch.BlockedCycles         616648                       # Number of cycles fetch has spent blocked
system.switch_cpus.fetch.CacheLines           1534727                       # Number of cache lines fetched
system.switch_cpus.fetch.IcacheSquashes         92137                       # Number of outstanding Icache misses that were squashed
system.switch_cpus.fetch.rateDist::samples      8485480                       # Number of instructions fetched each cycle (Total)
system.switch_cpus.fetch.rateDist::mean      2.520836                       # Number of instructions fetched each cycle (Total)
system.switch_cpus.fetch.rateDist::stdev     3.308865                       # Number of instructions fetched each cycle (Total)
system.switch_cpus.fetch.rateDist::underflows            0      0.00%      0.00% # Number of instructions fetched each cycle (Total)
system.switch_cpus.fetch.rateDist::0          4680562     55.16%     55.16% # Number of instructions fetched each cycle (Total)
system.switch_cpus.fetch.rateDist::1           334350      3.94%     59.10% # Number of instructions fetched each cycle (Total)
system.switch_cpus.fetch.rateDist::2           269330      3.17%     62.27% # Number of instructions fetched each cycle (Total)
system.switch_cpus.fetch.rateDist::3           654492      7.71%     69.99% # Number of instructions fetched each cycle (Total)
system.switch_cpus.fetch.rateDist::4           177134      2.09%     72.07% # Number of instructions fetched each cycle (Total)
system.switch_cpus.fetch.rateDist::5           228996      2.70%     74.77% # Number of instructions fetched each cycle (Total)
system.switch_cpus.fetch.rateDist::6           165872      1.95%     76.73% # Number of instructions fetched each cycle (Total)
system.switch_cpus.fetch.rateDist::7            92680      1.09%     77.82% # Number of instructions fetched each cycle (Total)
system.switch_cpus.fetch.rateDist::8          1882064     22.18%    100.00% # Number of instructions fetched each cycle (Total)
system.switch_cpus.fetch.rateDist::overflows            0      0.00%    100.00% # Number of instructions fetched each cycle (Total)
system.switch_cpus.fetch.rateDist::min_value            0                       # Number of instructions fetched each cycle (Total)
system.switch_cpus.fetch.rateDist::max_value            8                       # Number of instructions fetched each cycle (Total)
system.switch_cpus.fetch.rateDist::total      8485480                       # Number of instructions fetched each cycle (Total)
system.switch_cpus.fetch.branchRate          0.364886                       # Number of branch fetches per cycle
system.switch_cpus.fetch.rate                2.021567                       # Number of inst fetches per cycle
system.switch_cpus.decode.IdleCycles          3280430                       # Number of cycles decode is idle
system.switch_cpus.decode.BlockedCycles        598219                       # Number of cycles decode is blocked
system.switch_cpus.decode.RunCycles           3657663                       # Number of cycles decode is running
system.switch_cpus.decode.UnblockCycles         24508                       # Number of cycles decode is unblocking
system.switch_cpus.decode.SquashCycles         924658                       # Number of cycles decode is squashing
system.switch_cpus.decode.BranchResolved       533136                       # Number of times decode resolved a branch
system.switch_cpus.decode.BranchMispred          4705                       # Number of times decode detected a branch misprediction
system.switch_cpus.decode.DecodedInsts       20688390                       # Number of instructions handled by decode
system.switch_cpus.decode.SquashedInsts         10442                       # Number of squashed instructions handled by decode
system.switch_cpus.rename.SquashCycles         924658                       # Number of cycles rename is squashing
system.switch_cpus.rename.IdleCycles          3520821                       # Number of cycles rename is idle
system.switch_cpus.rename.BlockCycles          131618                       # Number of cycles rename is blocking
system.switch_cpus.rename.serializeStallCycles       115524                       # count of cycles rename stalled for serializing inst
system.switch_cpus.rename.RunCycles           3436220                       # Number of cycles rename is running
system.switch_cpus.rename.UnblockCycles        356637                       # Number of cycles rename is unblocking
system.switch_cpus.rename.RenamedInsts       19949725                       # Number of instructions processed by rename
system.switch_cpus.rename.ROBFullEvents          2530                       # Number of times rename has blocked due to ROB full
system.switch_cpus.rename.IQFullEvents         147827                       # Number of times rename has blocked due to IQ full
system.switch_cpus.rename.LSQFullEvents        111145                       # Number of times rename has blocked due to LSQ full
system.switch_cpus.rename.FullRegisterEvents           80                       # Number of times there has been no free registers
system.switch_cpus.rename.RenamedOperands     27933353                       # Number of destination operands rename has renamed
system.switch_cpus.rename.RenameLookups      93115496                       # Number of register rename lookups that rename has made
system.switch_cpus.rename.int_rename_lookups     93115496                       # Number of integer rename lookups
system.switch_cpus.rename.CommittedMaps      17069291                       # Number of HB maps that are committed
system.switch_cpus.rename.UndoneMaps         10864043                       # Number of HB maps that are undone due to squashing
system.switch_cpus.rename.serializingInsts         4090                       # count of serializing insts renamed
system.switch_cpus.rename.tempSerializingInsts         2310                       # count of temporary serializing insts renamed
system.switch_cpus.rename.skidInsts            980584                       # count of insts added to the skid buffer
system.switch_cpus.memDep0.insertedLoads      1863546                       # Number of loads inserted to the mem dependence unit.
system.switch_cpus.memDep0.insertedStores       945117                       # Number of stores inserted to the mem dependence unit.
system.switch_cpus.memDep0.conflictingLoads        15153                       # Number of conflicting loads.
system.switch_cpus.memDep0.conflictingStores       316926                       # Number of conflicting stores.
system.switch_cpus.iq.iqInstsAdded           18856305                       # Number of instructions added to the IQ (excludes non-spec)
system.switch_cpus.iq.iqNonSpecInstsAdded         3935                       # Number of non-speculative instructions added to the IQ
system.switch_cpus.iq.iqInstsIssued          14952040                       # Number of instructions issued
system.switch_cpus.iq.iqSquashedInstsIssued        29759                       # Number of squashed instructions issued
system.switch_cpus.iq.iqSquashedInstsExamined      6547938                       # Number of squashed instructions iterated over during squash; mainly for profiling
system.switch_cpus.iq.iqSquashedOperandsExamined     20030868                       # Number of squashed operands that are examined and possibly removed from graph
system.switch_cpus.iq.iqSquashedNonSpecRemoved          631                       # Number of squashed non-spec instructions that were removed
system.switch_cpus.iq.issued_per_cycle::samples      8485480                       # Number of insts issued each cycle
system.switch_cpus.iq.issued_per_cycle::mean     1.762074                       # Number of insts issued each cycle
system.switch_cpus.iq.issued_per_cycle::stdev     1.885900                       # Number of insts issued each cycle
system.switch_cpus.iq.issued_per_cycle::underflows            0      0.00%      0.00% # Number of insts issued each cycle
system.switch_cpus.iq.issued_per_cycle::0      2944028     34.69%     34.69% # Number of insts issued each cycle
system.switch_cpus.iq.issued_per_cycle::1      1825681     21.52%     56.21% # Number of insts issued each cycle
system.switch_cpus.iq.issued_per_cycle::2      1198368     14.12%     70.33% # Number of insts issued each cycle
system.switch_cpus.iq.issued_per_cycle::3       887174     10.46%     80.79% # Number of insts issued each cycle
system.switch_cpus.iq.issued_per_cycle::4       762053      8.98%     89.77% # Number of insts issued each cycle
system.switch_cpus.iq.issued_per_cycle::5       395642      4.66%     94.43% # Number of insts issued each cycle
system.switch_cpus.iq.issued_per_cycle::6       337660      3.98%     98.41% # Number of insts issued each cycle
system.switch_cpus.iq.issued_per_cycle::7        63273      0.75%     99.16% # Number of insts issued each cycle
system.switch_cpus.iq.issued_per_cycle::8        71601      0.84%    100.00% # Number of insts issued each cycle
system.switch_cpus.iq.issued_per_cycle::overflows            0      0.00%    100.00% # Number of insts issued each cycle
system.switch_cpus.iq.issued_per_cycle::min_value            0                       # Number of insts issued each cycle
system.switch_cpus.iq.issued_per_cycle::max_value            8                       # Number of insts issued each cycle
system.switch_cpus.iq.issued_per_cycle::total      8485480                       # Number of insts issued each cycle
system.switch_cpus.iq.fu_full::No_OpClass            0      0.00%      0.00% # attempts to use FU when none available
system.switch_cpus.iq.fu_full::IntAlu           87467     71.04%     71.04% # attempts to use FU when none available
system.switch_cpus.iq.fu_full::IntMult              1      0.00%     71.04% # attempts to use FU when none available
system.switch_cpus.iq.fu_full::IntDiv               0      0.00%     71.04% # attempts to use FU when none available
system.switch_cpus.iq.fu_full::FloatAdd             0      0.00%     71.04% # attempts to use FU when none available
system.switch_cpus.iq.fu_full::FloatCmp             0      0.00%     71.04% # attempts to use FU when none available
system.switch_cpus.iq.fu_full::FloatCvt             0      0.00%     71.04% # attempts to use FU when none available
system.switch_cpus.iq.fu_full::FloatMult            0      0.00%     71.04% # attempts to use FU when none available
system.switch_cpus.iq.fu_full::FloatDiv             0      0.00%     71.04% # attempts to use FU when none available
system.switch_cpus.iq.fu_full::FloatSqrt            0      0.00%     71.04% # attempts to use FU when none available
system.switch_cpus.iq.fu_full::SimdAdd              0      0.00%     71.04% # attempts to use FU when none available
system.switch_cpus.iq.fu_full::SimdAddAcc            0      0.00%     71.04% # attempts to use FU when none available
system.switch_cpus.iq.fu_full::SimdAlu              0      0.00%     71.04% # attempts to use FU when none available
system.switch_cpus.iq.fu_full::SimdCmp              0      0.00%     71.04% # attempts to use FU when none available
system.switch_cpus.iq.fu_full::SimdCvt              0      0.00%     71.04% # attempts to use FU when none available
system.switch_cpus.iq.fu_full::SimdMisc             0      0.00%     71.04% # attempts to use FU when none available
system.switch_cpus.iq.fu_full::SimdMult             0      0.00%     71.04% # attempts to use FU when none available
system.switch_cpus.iq.fu_full::SimdMultAcc            0      0.00%     71.04% # attempts to use FU when none available
system.switch_cpus.iq.fu_full::SimdShift            0      0.00%     71.04% # attempts to use FU when none available
system.switch_cpus.iq.fu_full::SimdShiftAcc            0      0.00%     71.04% # attempts to use FU when none available
system.switch_cpus.iq.fu_full::SimdSqrt             0      0.00%     71.04% # attempts to use FU when none available
system.switch_cpus.iq.fu_full::SimdFloatAdd            0      0.00%     71.04% # attempts to use FU when none available
system.switch_cpus.iq.fu_full::SimdFloatAlu            0      0.00%     71.04% # attempts to use FU when none available
system.switch_cpus.iq.fu_full::SimdFloatCmp            0      0.00%     71.04% # attempts to use FU when none available
system.switch_cpus.iq.fu_full::SimdFloatCvt            0      0.00%     71.04% # attempts to use FU when none available
system.switch_cpus.iq.fu_full::SimdFloatDiv            0      0.00%     71.04% # attempts to use FU when none available
system.switch_cpus.iq.fu_full::SimdFloatMisc            0      0.00%     71.04% # attempts to use FU when none available
system.switch_cpus.iq.fu_full::SimdFloatMult            0      0.00%     71.04% # attempts to use FU when none available
system.switch_cpus.iq.fu_full::SimdFloatMultAcc            0      0.00%     71.04% # attempts to use FU when none available
system.switch_cpus.iq.fu_full::SimdFloatSqrt            0      0.00%     71.04% # attempts to use FU when none available
system.switch_cpus.iq.fu_full::MemRead          17858     14.50%     85.54% # attempts to use FU when none available
system.switch_cpus.iq.fu_full::MemWrite         17801     14.46%    100.00% # attempts to use FU when none available
system.switch_cpus.iq.fu_full::IprAccess            0      0.00%    100.00% # attempts to use FU when none available
system.switch_cpus.iq.fu_full::InstPrefetch            0      0.00%    100.00% # attempts to use FU when none available
system.switch_cpus.iq.FU_type_0::No_OpClass            0      0.00%      0.00% # Type of FU issued
system.switch_cpus.iq.FU_type_0::IntAlu      12457566     83.32%     83.32% # Type of FU issued
system.switch_cpus.iq.FU_type_0::IntMult       212475      1.42%     84.74% # Type of FU issued
system.switch_cpus.iq.FU_type_0::IntDiv             0      0.00%     84.74% # Type of FU issued
system.switch_cpus.iq.FU_type_0::FloatAdd            0      0.00%     84.74% # Type of FU issued
system.switch_cpus.iq.FU_type_0::FloatCmp            0      0.00%     84.74% # Type of FU issued
system.switch_cpus.iq.FU_type_0::FloatCvt            0      0.00%     84.74% # Type of FU issued
system.switch_cpus.iq.FU_type_0::FloatMult            0      0.00%     84.74% # Type of FU issued
system.switch_cpus.iq.FU_type_0::FloatDiv            0      0.00%     84.74% # Type of FU issued
system.switch_cpus.iq.FU_type_0::FloatSqrt            0      0.00%     84.74% # Type of FU issued
system.switch_cpus.iq.FU_type_0::SimdAdd            0      0.00%     84.74% # Type of FU issued
system.switch_cpus.iq.FU_type_0::SimdAddAcc            0      0.00%     84.74% # Type of FU issued
system.switch_cpus.iq.FU_type_0::SimdAlu            0      0.00%     84.74% # Type of FU issued
system.switch_cpus.iq.FU_type_0::SimdCmp            0      0.00%     84.74% # Type of FU issued
system.switch_cpus.iq.FU_type_0::SimdCvt            0      0.00%     84.74% # Type of FU issued
system.switch_cpus.iq.FU_type_0::SimdMisc            0      0.00%     84.74% # Type of FU issued
system.switch_cpus.iq.FU_type_0::SimdMult            0      0.00%     84.74% # Type of FU issued
system.switch_cpus.iq.FU_type_0::SimdMultAcc            0      0.00%     84.74% # Type of FU issued
system.switch_cpus.iq.FU_type_0::SimdShift            0      0.00%     84.74% # Type of FU issued
system.switch_cpus.iq.FU_type_0::SimdShiftAcc            0      0.00%     84.74% # Type of FU issued
system.switch_cpus.iq.FU_type_0::SimdSqrt            0      0.00%     84.74% # Type of FU issued
system.switch_cpus.iq.FU_type_0::SimdFloatAdd            0      0.00%     84.74% # Type of FU issued
system.switch_cpus.iq.FU_type_0::SimdFloatAlu            0      0.00%     84.74% # Type of FU issued
system.switch_cpus.iq.FU_type_0::SimdFloatCmp            0      0.00%     84.74% # Type of FU issued
system.switch_cpus.iq.FU_type_0::SimdFloatCvt            0      0.00%     84.74% # Type of FU issued
system.switch_cpus.iq.FU_type_0::SimdFloatDiv            0      0.00%     84.74% # Type of FU issued
system.switch_cpus.iq.FU_type_0::SimdFloatMisc         1653      0.01%     84.75% # Type of FU issued
system.switch_cpus.iq.FU_type_0::SimdFloatMult            0      0.00%     84.75% # Type of FU issued
system.switch_cpus.iq.FU_type_0::SimdFloatMultAcc            0      0.00%     84.75% # Type of FU issued
system.switch_cpus.iq.FU_type_0::SimdFloatSqrt            0      0.00%     84.75% # Type of FU issued
system.switch_cpus.iq.FU_type_0::MemRead      1486389      9.94%     94.69% # Type of FU issued
system.switch_cpus.iq.FU_type_0::MemWrite       793957      5.31%    100.00% # Type of FU issued
system.switch_cpus.iq.FU_type_0::IprAccess            0      0.00%    100.00% # Type of FU issued
system.switch_cpus.iq.FU_type_0::InstPrefetch            0      0.00%    100.00% # Type of FU issued
system.switch_cpus.iq.FU_type_0::total       14952040                       # Type of FU issued
system.switch_cpus.iq.rate                   1.745947                       # Inst issue rate
system.switch_cpus.iq.fu_busy_cnt              123127                       # FU busy when requested
system.switch_cpus.iq.fu_busy_rate           0.008235                       # FU busy rate (busy events/executed inst)
system.switch_cpus.iq.int_inst_queue_reads     38542442                       # Number of integer instruction queue reads
system.switch_cpus.iq.int_inst_queue_writes     25408246                       # Number of integer instruction queue writes
system.switch_cpus.iq.int_inst_queue_wakeup_accesses     14566378                       # Number of integer instruction queue wakeup accesses
system.switch_cpus.iq.fp_inst_queue_reads            0                       # Number of floating instruction queue reads
system.switch_cpus.iq.fp_inst_queue_writes            0                       # Number of floating instruction queue writes
system.switch_cpus.iq.fp_inst_queue_wakeup_accesses            0                       # Number of floating instruction queue wakeup accesses
system.switch_cpus.iq.int_alu_accesses       15075167                       # Number of integer alu accesses
system.switch_cpus.iq.fp_alu_accesses               0                       # Number of floating point alu accesses
system.switch_cpus.iew.lsq.thread0.forwLoads        55887                       # Number of loads that had data forwarded from stores
system.switch_cpus.iew.lsq.thread0.invAddrLoads            0                       # Number of loads ignored due to an invalid address
system.switch_cpus.iew.lsq.thread0.squashedLoads       740188                       # Number of loads squashed
system.switch_cpus.iew.lsq.thread0.ignoredResponses          309                       # Number of memory responses ignored because the instruction is squashed
system.switch_cpus.iew.lsq.thread0.memOrderViolation           68                       # Number of memory ordering violations
system.switch_cpus.iew.lsq.thread0.squashedStores       242502                       # Number of stores squashed
system.switch_cpus.iew.lsq.thread0.invAddrSwpfs            0                       # Number of software prefetches ignored due to an invalid address
system.switch_cpus.iew.lsq.thread0.blockedLoads            0                       # Number of blocked loads due to partial load-store forwarding
system.switch_cpus.iew.lsq.thread0.rescheduledLoads            0                       # Number of loads that were rescheduled
system.switch_cpus.iew.lsq.thread0.cacheBlocked            0                       # Number of times an access to memory failed due to the cache being blocked
system.switch_cpus.iew.iewIdleCycles                0                       # Number of cycles IEW is idle
system.switch_cpus.iew.iewSquashCycles         924658                       # Number of cycles IEW is squashing
system.switch_cpus.iew.iewBlockCycles           58111                       # Number of cycles IEW is blocking
system.switch_cpus.iew.iewUnblockCycles          8180                       # Number of cycles IEW is unblocking
system.switch_cpus.iew.iewDispatchedInsts     18860240                       # Number of instructions dispatched to IQ
system.switch_cpus.iew.iewDispSquashedInsts        42773                       # Number of squashed instructions skipped by dispatch
system.switch_cpus.iew.iewDispLoadInsts       1863546                       # Number of dispatched load instructions
system.switch_cpus.iew.iewDispStoreInsts       945117                       # Number of dispatched store instructions
system.switch_cpus.iew.iewDispNonSpecInsts         2283                       # Number of dispatched non-speculative instructions
system.switch_cpus.iew.iewIQFullEvents           7312                       # Number of times the IQ has become full, causing a stall
system.switch_cpus.iew.iewLSQFullEvents             0                       # Number of times the LSQ has become full, causing a stall
system.switch_cpus.iew.memOrderViolationEvents           68                       # Number of memory order violations
system.switch_cpus.iew.predictedTakenIncorrect       127691                       # Number of branches that were predicted taken incorrectly
system.switch_cpus.iew.predictedNotTakenIncorrect       121535                       # Number of branches that were predicted not taken incorrectly
system.switch_cpus.iew.branchMispredicts       249226                       # Number of branch mispredicts detected at execute
system.switch_cpus.iew.iewExecutedInsts      14710834                       # Number of executed instructions
system.switch_cpus.iew.iewExecLoadInsts       1392523                       # Number of load instructions executed
system.switch_cpus.iew.iewExecSquashedInsts       241202                       # Number of squashed instructions skipped in execute
system.switch_cpus.iew.exec_swp                     0                       # number of swp insts executed
system.switch_cpus.iew.exec_nop                     0                       # number of nop insts executed
system.switch_cpus.iew.exec_refs              2165729                       # number of memory reference insts executed
system.switch_cpus.iew.exec_branches          2075050                       # Number of branches executed
system.switch_cpus.iew.exec_stores             773206                       # Number of stores executed
system.switch_cpus.iew.exec_rate             1.717781                       # Inst execution rate
system.switch_cpus.iew.wb_sent               14576249                       # cumulative count of insts sent to commit
system.switch_cpus.iew.wb_count              14566378                       # cumulative count of insts written-back
system.switch_cpus.iew.wb_producers           9484528                       # num instructions producing a value
system.switch_cpus.iew.wb_consumers          26792668                       # num instructions consuming a value
system.switch_cpus.iew.wb_penalized                 0                       # number of instrctions required to write to 'other' IQ
system.switch_cpus.iew.wb_rate               1.700913                       # insts written-back per cycle
system.switch_cpus.iew.wb_fanout             0.353997                       # average fanout of values written-back
system.switch_cpus.iew.wb_penalized_rate            0                       # fraction of instructions written-back that wrote to 'other' IQ
system.switch_cpus.commit.commitCommittedInsts     10000000                       # The number of committed instructions
system.switch_cpus.commit.commitCommittedOps     12280740                       # The number of committed instructions
system.switch_cpus.commit.commitSquashedInsts      6579583                       # The number of squashed insts skipped by commit
system.switch_cpus.commit.commitNonSpecStalls         3304                       # The number of times commit has been forced to stall to communicate backwards
system.switch_cpus.commit.branchMispredicts       215181                       # The number of times a branch was mispredicted
system.switch_cpus.commit.committed_per_cycle::samples      7560822                       # Number of insts commited each cycle
system.switch_cpus.commit.committed_per_cycle::mean     1.624260                       # Number of insts commited each cycle
system.switch_cpus.commit.committed_per_cycle::stdev     2.138080                       # Number of insts commited each cycle
system.switch_cpus.commit.committed_per_cycle::underflows            0      0.00%      0.00% # Number of insts commited each cycle
system.switch_cpus.commit.committed_per_cycle::0      2934880     38.82%     38.82% # Number of insts commited each cycle
system.switch_cpus.commit.committed_per_cycle::1      2097734     27.74%     66.56% # Number of insts commited each cycle
system.switch_cpus.commit.committed_per_cycle::2       853933     11.29%     77.86% # Number of insts commited each cycle
system.switch_cpus.commit.committed_per_cycle::3       479028      6.34%     84.19% # Number of insts commited each cycle
system.switch_cpus.commit.committed_per_cycle::4       392801      5.20%     89.39% # Number of insts commited each cycle
system.switch_cpus.commit.committed_per_cycle::5       159139      2.10%     91.49% # Number of insts commited each cycle
system.switch_cpus.commit.committed_per_cycle::6       190190      2.52%     94.01% # Number of insts commited each cycle
system.switch_cpus.commit.committed_per_cycle::7        94919      1.26%     95.26% # Number of insts commited each cycle
system.switch_cpus.commit.committed_per_cycle::8       358198      4.74%    100.00% # Number of insts commited each cycle
system.switch_cpus.commit.committed_per_cycle::overflows            0      0.00%    100.00% # Number of insts commited each cycle
system.switch_cpus.commit.committed_per_cycle::min_value            0                       # Number of insts commited each cycle
system.switch_cpus.commit.committed_per_cycle::max_value            8                       # Number of insts commited each cycle
system.switch_cpus.commit.committed_per_cycle::total      7560822                       # Number of insts commited each cycle
system.switch_cpus.commit.committedInsts     10000000                       # Number of instructions committed
system.switch_cpus.commit.committedOps       12280740                       # Number of ops (including micro ops) committed
system.switch_cpus.commit.swp_count                 0                       # Number of s/w prefetches committed
system.switch_cpus.commit.refs                1825970                       # Number of memory references committed
system.switch_cpus.commit.loads               1123355                       # Number of loads committed
system.switch_cpus.commit.membars                1652                       # Number of memory barriers committed
system.switch_cpus.commit.branches            1764545                       # Number of branches committed
system.switch_cpus.commit.fp_insts                  0                       # Number of committed floating point instructions.
system.switch_cpus.commit.int_insts          11065293                       # Number of committed integer instructions.
system.switch_cpus.commit.function_calls       250005                       # Number of function calls committed.
system.switch_cpus.commit.bw_lim_events        358198                       # number cycles where commit BW limit reached
system.switch_cpus.commit.bw_limited                0                       # number of insts not committed due to BW limits
system.switch_cpus.rob.rob_reads             26062947                       # The number of ROB reads
system.switch_cpus.rob.rob_writes            38645944                       # The number of ROB writes
system.switch_cpus.timesIdled                    3853                       # Number of times that the entire CPU went into an idle state and unscheduled itself
system.switch_cpus.idleCycles                   78378                       # Total number of cycles that the CPU has spent unscheduled due to idling
system.switch_cpus.committedInsts            10000000                       # Number of Instructions Simulated
system.switch_cpus.committedOps              12280740                       # Number of Ops (including micro ops) Simulated
system.switch_cpus.committedInsts_total      10000000                       # Number of Instructions Simulated
system.switch_cpus.cpi                       0.856386                       # CPI: Cycles Per Instruction
system.switch_cpus.cpi_total                 0.856386                       # CPI: Total CPI of All Threads
system.switch_cpus.ipc                       1.167698                       # IPC: Instructions Per Cycle
system.switch_cpus.ipc_total                 1.167698                       # IPC: Total IPC of All Threads
system.switch_cpus.int_regfile_reads         66172830                       # number of integer regfile reads
system.switch_cpus.int_regfile_writes        20138270                       # number of integer regfile writes
system.switch_cpus.misc_regfile_reads        19091166                       # number of misc regfile reads
system.switch_cpus.misc_regfile_writes           3304                       # number of misc regfile writes
system.l2.replacements                           1224                       # number of replacements
system.l2.tagsinuse                             65536                       # Cycle average of tags in use
system.l2.total_refs                           906984                       # Total number of references to valid blocks.
system.l2.sampled_refs                          66760                       # Sample count of references to valid blocks.
system.l2.avg_refs                          13.585740                       # Average number of references to valid blocks.
system.l2.warmup_cycle                              0                       # Cycle when the warmup percentage was hit.
system.l2.occ_blocks::writebacks         38524.469807                       # Average occupied blocks per requestor
system.l2.occ_blocks::switch_cpus.inst      13.957727                       # Average occupied blocks per requestor
system.l2.occ_blocks::switch_cpus.data     617.982164                       # Average occupied blocks per requestor
system.l2.occ_blocks::cpu.inst                    111                       # Average occupied blocks per requestor
system.l2.occ_blocks::cpu.data           26268.590303                       # Average occupied blocks per requestor
system.l2.occ_percent::writebacks            0.587837                       # Average percentage of cache occupancy
system.l2.occ_percent::switch_cpus.inst      0.000213                       # Average percentage of cache occupancy
system.l2.occ_percent::switch_cpus.data      0.009430                       # Average percentage of cache occupancy
system.l2.occ_percent::cpu.inst              0.001694                       # Average percentage of cache occupancy
system.l2.occ_percent::cpu.data              0.400827                       # Average percentage of cache occupancy
system.l2.occ_percent::total                        1                       # Average percentage of cache occupancy
system.l2.ReadReq_hits::switch_cpus.data         6057                       # number of ReadReq hits
system.l2.ReadReq_hits::total                    6057                       # number of ReadReq hits
system.l2.Writeback_hits::writebacks             2582                       # number of Writeback hits
system.l2.Writeback_hits::total                  2582                       # number of Writeback hits
system.l2.demand_hits::switch_cpus.data          6057                       # number of demand (read+write) hits
system.l2.demand_hits::total                     6057                       # number of demand (read+write) hits
system.l2.overall_hits::switch_cpus.data         6057                       # number of overall hits
system.l2.overall_hits::total                    6057                       # number of overall hits
system.l2.ReadReq_misses::switch_cpus.inst           14                       # number of ReadReq misses
system.l2.ReadReq_misses::switch_cpus.data         1210                       # number of ReadReq misses
system.l2.ReadReq_misses::total                  1224                       # number of ReadReq misses
system.l2.demand_misses::switch_cpus.inst           14                       # number of demand (read+write) misses
system.l2.demand_misses::switch_cpus.data         1210                       # number of demand (read+write) misses
system.l2.demand_misses::total                   1224                       # number of demand (read+write) misses
system.l2.overall_misses::switch_cpus.inst           14                       # number of overall misses
system.l2.overall_misses::switch_cpus.data         1210                       # number of overall misses
system.l2.overall_misses::total                  1224                       # number of overall misses
system.l2.ReadReq_miss_latency::switch_cpus.inst       468427                       # number of ReadReq miss cycles
system.l2.ReadReq_miss_latency::switch_cpus.data     50757394                       # number of ReadReq miss cycles
system.l2.ReadReq_miss_latency::total        51225821                       # number of ReadReq miss cycles
system.l2.demand_miss_latency::switch_cpus.inst       468427                       # number of demand (read+write) miss cycles
system.l2.demand_miss_latency::switch_cpus.data     50757394                       # number of demand (read+write) miss cycles
system.l2.demand_miss_latency::total         51225821                       # number of demand (read+write) miss cycles
system.l2.overall_miss_latency::switch_cpus.inst       468427                       # number of overall miss cycles
system.l2.overall_miss_latency::switch_cpus.data     50757394                       # number of overall miss cycles
system.l2.overall_miss_latency::total        51225821                       # number of overall miss cycles
system.l2.ReadReq_accesses::switch_cpus.inst           14                       # number of ReadReq accesses(hits+misses)
system.l2.ReadReq_accesses::switch_cpus.data         7267                       # number of ReadReq accesses(hits+misses)
system.l2.ReadReq_accesses::total                7281                       # number of ReadReq accesses(hits+misses)
system.l2.Writeback_accesses::writebacks         2582                       # number of Writeback accesses(hits+misses)
system.l2.Writeback_accesses::total              2582                       # number of Writeback accesses(hits+misses)
system.l2.demand_accesses::switch_cpus.inst           14                       # number of demand (read+write) accesses
system.l2.demand_accesses::switch_cpus.data         7267                       # number of demand (read+write) accesses
system.l2.demand_accesses::total                 7281                       # number of demand (read+write) accesses
system.l2.overall_accesses::switch_cpus.inst           14                       # number of overall (read+write) accesses
system.l2.overall_accesses::switch_cpus.data         7267                       # number of overall (read+write) accesses
system.l2.overall_accesses::total                7281                       # number of overall (read+write) accesses
system.l2.ReadReq_miss_rate::switch_cpus.inst            1                       # miss rate for ReadReq accesses
system.l2.ReadReq_miss_rate::switch_cpus.data     0.166506                       # miss rate for ReadReq accesses
system.l2.ReadReq_miss_rate::total           0.168109                       # miss rate for ReadReq accesses
system.l2.demand_miss_rate::switch_cpus.inst            1                       # miss rate for demand accesses
system.l2.demand_miss_rate::switch_cpus.data     0.166506                       # miss rate for demand accesses
system.l2.demand_miss_rate::total            0.168109                       # miss rate for demand accesses
system.l2.overall_miss_rate::switch_cpus.inst            1                       # miss rate for overall accesses
system.l2.overall_miss_rate::switch_cpus.data     0.166506                       # miss rate for overall accesses
system.l2.overall_miss_rate::total           0.168109                       # miss rate for overall accesses
system.l2.ReadReq_avg_miss_latency::switch_cpus.inst 33459.071429                       # average ReadReq miss latency
system.l2.ReadReq_avg_miss_latency::switch_cpus.data 41948.259504                       # average ReadReq miss latency
system.l2.ReadReq_avg_miss_latency::total 41851.160948                       # average ReadReq miss latency
system.l2.demand_avg_miss_latency::switch_cpus.inst 33459.071429                       # average overall miss latency
system.l2.demand_avg_miss_latency::switch_cpus.data 41948.259504                       # average overall miss latency
system.l2.demand_avg_miss_latency::total 41851.160948                       # average overall miss latency
system.l2.overall_avg_miss_latency::switch_cpus.inst 33459.071429                       # average overall miss latency
system.l2.overall_avg_miss_latency::switch_cpus.data 41948.259504                       # average overall miss latency
system.l2.overall_avg_miss_latency::total 41851.160948                       # average overall miss latency
system.l2.blocked_cycles::no_mshrs                  0                       # number of cycles access was blocked
system.l2.blocked_cycles::no_targets                0                       # number of cycles access was blocked
system.l2.blocked::no_mshrs                         0                       # number of cycles access was blocked
system.l2.blocked::no_targets                       0                       # number of cycles access was blocked
system.l2.avg_blocked_cycles::no_mshrs            nan                       # average number of cycles each access was blocked
system.l2.avg_blocked_cycles::no_targets          nan                       # average number of cycles each access was blocked
system.l2.fast_writes                               0                       # number of fast writes performed
system.l2.cache_copies                              0                       # number of cache copies performed
system.l2.writebacks::writebacks                  764                       # number of writebacks
system.l2.writebacks::total                       764                       # number of writebacks
system.l2.ReadReq_mshr_misses::switch_cpus.inst           14                       # number of ReadReq MSHR misses
system.l2.ReadReq_mshr_misses::switch_cpus.data         1210                       # number of ReadReq MSHR misses
system.l2.ReadReq_mshr_misses::total             1224                       # number of ReadReq MSHR misses
system.l2.demand_mshr_misses::switch_cpus.inst           14                       # number of demand (read+write) MSHR misses
system.l2.demand_mshr_misses::switch_cpus.data         1210                       # number of demand (read+write) MSHR misses
system.l2.demand_mshr_misses::total              1224                       # number of demand (read+write) MSHR misses
system.l2.overall_mshr_misses::switch_cpus.inst           14                       # number of overall MSHR misses
system.l2.overall_mshr_misses::switch_cpus.data         1210                       # number of overall MSHR misses
system.l2.overall_mshr_misses::total             1224                       # number of overall MSHR misses
system.l2.ReadReq_mshr_miss_latency::switch_cpus.inst       388109                       # number of ReadReq MSHR miss cycles
system.l2.ReadReq_mshr_miss_latency::switch_cpus.data     43713316                       # number of ReadReq MSHR miss cycles
system.l2.ReadReq_mshr_miss_latency::total     44101425                       # number of ReadReq MSHR miss cycles
system.l2.demand_mshr_miss_latency::switch_cpus.inst       388109                       # number of demand (read+write) MSHR miss cycles
system.l2.demand_mshr_miss_latency::switch_cpus.data     43713316                       # number of demand (read+write) MSHR miss cycles
system.l2.demand_mshr_miss_latency::total     44101425                       # number of demand (read+write) MSHR miss cycles
system.l2.overall_mshr_miss_latency::switch_cpus.inst       388109                       # number of overall MSHR miss cycles
system.l2.overall_mshr_miss_latency::switch_cpus.data     43713316                       # number of overall MSHR miss cycles
system.l2.overall_mshr_miss_latency::total     44101425                       # number of overall MSHR miss cycles
system.l2.ReadReq_mshr_miss_rate::switch_cpus.inst            1                       # mshr miss rate for ReadReq accesses
system.l2.ReadReq_mshr_miss_rate::switch_cpus.data     0.166506                       # mshr miss rate for ReadReq accesses
system.l2.ReadReq_mshr_miss_rate::total      0.168109                       # mshr miss rate for ReadReq accesses
system.l2.demand_mshr_miss_rate::switch_cpus.inst            1                       # mshr miss rate for demand accesses
system.l2.demand_mshr_miss_rate::switch_cpus.data     0.166506                       # mshr miss rate for demand accesses
system.l2.demand_mshr_miss_rate::total       0.168109                       # mshr miss rate for demand accesses
system.l2.overall_mshr_miss_rate::switch_cpus.inst            1                       # mshr miss rate for overall accesses
system.l2.overall_mshr_miss_rate::switch_cpus.data     0.166506                       # mshr miss rate for overall accesses
system.l2.overall_mshr_miss_rate::total      0.168109                       # mshr miss rate for overall accesses
system.l2.ReadReq_avg_mshr_miss_latency::switch_cpus.inst 27722.071429                       # average ReadReq mshr miss latency
system.l2.ReadReq_avg_mshr_miss_latency::switch_cpus.data 36126.707438                       # average ReadReq mshr miss latency
system.l2.ReadReq_avg_mshr_miss_latency::total 36030.575980                       # average ReadReq mshr miss latency
system.l2.demand_avg_mshr_miss_latency::switch_cpus.inst 27722.071429                       # average overall mshr miss latency
system.l2.demand_avg_mshr_miss_latency::switch_cpus.data 36126.707438                       # average overall mshr miss latency
system.l2.demand_avg_mshr_miss_latency::total 36030.575980                       # average overall mshr miss latency
system.l2.overall_avg_mshr_miss_latency::switch_cpus.inst 27722.071429                       # average overall mshr miss latency
system.l2.overall_avg_mshr_miss_latency::switch_cpus.data 36126.707438                       # average overall mshr miss latency
system.l2.overall_avg_mshr_miss_latency::total 36030.575980                       # average overall mshr miss latency
system.l2.no_allocate_misses                        0                       # Number of misses that were no-allocate
system.cpu.dtb.inst_hits                            0                       # ITB inst hits
system.cpu.dtb.inst_misses                          0                       # ITB inst misses
system.cpu.dtb.read_hits                            0                       # DTB read hits
system.cpu.dtb.read_misses                          0                       # DTB read misses
system.cpu.dtb.write_hits                           0                       # DTB write hits
system.cpu.dtb.write_misses                         0                       # DTB write misses
system.cpu.dtb.flush_tlb                            0                       # Number of times complete TLB was flushed
system.cpu.dtb.flush_tlb_mva                        0                       # Number of times TLB was flushed by MVA
system.cpu.dtb.flush_tlb_mva_asid                   0                       # Number of times TLB was flushed by MVA & ASID
system.cpu.dtb.flush_tlb_asid                       0                       # Number of times TLB was flushed by ASID
system.cpu.dtb.flush_entries                        0                       # Number of entries that have been flushed from TLB
system.cpu.dtb.align_faults                         0                       # Number of TLB faults due to alignment restrictions
system.cpu.dtb.prefetch_faults                      0                       # Number of TLB faults due to prefetch
system.cpu.dtb.domain_faults                        0                       # Number of TLB faults due to domain restrictions
system.cpu.dtb.perms_faults                         0                       # Number of TLB faults due to permissions restrictions
system.cpu.dtb.read_accesses                        0                       # DTB read accesses
system.cpu.dtb.write_accesses                       0                       # DTB write accesses
system.cpu.dtb.inst_accesses                        0                       # ITB inst accesses
system.cpu.dtb.hits                                 0                       # DTB hits
system.cpu.dtb.misses                               0                       # DTB misses
system.cpu.dtb.accesses                             0                       # DTB accesses
system.cpu.itb.inst_hits                            0                       # ITB inst hits
system.cpu.itb.inst_misses                          0                       # ITB inst misses
system.cpu.itb.read_hits                            0                       # DTB read hits
system.cpu.itb.read_misses                          0                       # DTB read misses
system.cpu.itb.write_hits                           0                       # DTB write hits
system.cpu.itb.write_misses                         0                       # DTB write misses
system.cpu.itb.flush_tlb                            0                       # Number of times complete TLB was flushed
system.cpu.itb.flush_tlb_mva                        0                       # Number of times TLB was flushed by MVA
system.cpu.itb.flush_tlb_mva_asid                   0                       # Number of times TLB was flushed by MVA & ASID
system.cpu.itb.flush_tlb_asid                       0                       # Number of times TLB was flushed by ASID
system.cpu.itb.flush_entries                        0                       # Number of entries that have been flushed from TLB
system.cpu.itb.align_faults                         0                       # Number of TLB faults due to alignment restrictions
system.cpu.itb.prefetch_faults                      0                       # Number of TLB faults due to prefetch
system.cpu.itb.domain_faults                        0                       # Number of TLB faults due to domain restrictions
system.cpu.itb.perms_faults                         0                       # Number of TLB faults due to permissions restrictions
system.cpu.itb.read_accesses                        0                       # DTB read accesses
system.cpu.itb.write_accesses                       0                       # DTB write accesses
system.cpu.itb.inst_accesses                        0                       # ITB inst accesses
system.cpu.itb.hits                                 0                       # DTB hits
system.cpu.itb.misses                               0                       # DTB misses
system.cpu.itb.accesses                             0                       # DTB accesses
system.cpu.numCycles                                0                       # number of cpu cycles simulated
system.cpu.numWorkItemsStarted                      0                       # number of work items this cpu started
system.cpu.numWorkItemsCompleted                    0                       # number of work items this cpu completed
system.cpu.committedInsts                           0                       # Number of instructions committed
system.cpu.committedOps                             0                       # Number of ops (including micro ops) committed
system.cpu.num_int_alu_accesses                     0                       # Number of integer alu accesses
system.cpu.num_fp_alu_accesses                      0                       # Number of float alu accesses
system.cpu.num_func_calls                           0                       # number of times a function call or return occured
system.cpu.num_conditional_control_insts            0                       # number of instructions that are conditional controls
system.cpu.num_int_insts                            0                       # number of integer instructions
system.cpu.num_fp_insts                             0                       # number of float instructions
system.cpu.num_int_register_reads                   0                       # number of times the integer registers were read
system.cpu.num_int_register_writes                  0                       # number of times the integer registers were written
system.cpu.num_fp_register_reads                    0                       # number of times the floating registers were read
system.cpu.num_fp_register_writes                   0                       # number of times the floating registers were written
system.cpu.num_mem_refs                             0                       # number of memory refs
system.cpu.num_load_insts                           0                       # Number of load instructions
system.cpu.num_store_insts                          0                       # Number of store instructions
system.cpu.num_idle_cycles                          0                       # Number of idle cycles
system.cpu.num_busy_cycles                          0                       # Number of busy cycles
system.cpu.not_idle_fraction                        1                       # Percentage of non-idle cycles
system.cpu.idle_fraction                            0                       # Percentage of idle cycles
system.cpu.icache.replacements                      0                       # number of replacements
system.cpu.icache.tagsinuse                496.957701                       # Cycle average of tags in use
system.cpu.icache.total_refs               1001542328                       # Total number of references to valid blocks.
system.cpu.icache.sampled_refs                    497                       # Sample count of references to valid blocks.
system.cpu.icache.avg_refs               2015175.710262                       # Average number of references to valid blocks.
system.cpu.icache.warmup_cycle                      0                       # Cycle when the warmup percentage was hit.
system.cpu.icache.occ_blocks::switch_cpus.inst    13.957701                       # Average occupied blocks per requestor
system.cpu.icache.occ_blocks::cpu.inst            483                       # Average occupied blocks per requestor
system.cpu.icache.occ_percent::switch_cpus.inst     0.022368                       # Average percentage of cache occupancy
system.cpu.icache.occ_percent::cpu.inst      0.774038                       # Average percentage of cache occupancy
system.cpu.icache.occ_percent::total         0.796407                       # Average percentage of cache occupancy
system.cpu.icache.ReadReq_hits::switch_cpus.inst      1534711                       # number of ReadReq hits
system.cpu.icache.ReadReq_hits::total         1534711                       # number of ReadReq hits
system.cpu.icache.demand_hits::switch_cpus.inst      1534711                       # number of demand (read+write) hits
system.cpu.icache.demand_hits::total          1534711                       # number of demand (read+write) hits
system.cpu.icache.overall_hits::switch_cpus.inst      1534711                       # number of overall hits
system.cpu.icache.overall_hits::total         1534711                       # number of overall hits
system.cpu.icache.ReadReq_misses::switch_cpus.inst           16                       # number of ReadReq misses
system.cpu.icache.ReadReq_misses::total            16                       # number of ReadReq misses
system.cpu.icache.demand_misses::switch_cpus.inst           16                       # number of demand (read+write) misses
system.cpu.icache.demand_misses::total             16                       # number of demand (read+write) misses
system.cpu.icache.overall_misses::switch_cpus.inst           16                       # number of overall misses
system.cpu.icache.overall_misses::total            16                       # number of overall misses
system.cpu.icache.ReadReq_miss_latency::switch_cpus.inst       612909                       # number of ReadReq miss cycles
system.cpu.icache.ReadReq_miss_latency::total       612909                       # number of ReadReq miss cycles
system.cpu.icache.demand_miss_latency::switch_cpus.inst       612909                       # number of demand (read+write) miss cycles
system.cpu.icache.demand_miss_latency::total       612909                       # number of demand (read+write) miss cycles
system.cpu.icache.overall_miss_latency::switch_cpus.inst       612909                       # number of overall miss cycles
system.cpu.icache.overall_miss_latency::total       612909                       # number of overall miss cycles
system.cpu.icache.ReadReq_accesses::switch_cpus.inst      1534727                       # number of ReadReq accesses(hits+misses)
system.cpu.icache.ReadReq_accesses::total      1534727                       # number of ReadReq accesses(hits+misses)
system.cpu.icache.demand_accesses::switch_cpus.inst      1534727                       # number of demand (read+write) accesses
system.cpu.icache.demand_accesses::total      1534727                       # number of demand (read+write) accesses
system.cpu.icache.overall_accesses::switch_cpus.inst      1534727                       # number of overall (read+write) accesses
system.cpu.icache.overall_accesses::total      1534727                       # number of overall (read+write) accesses
system.cpu.icache.ReadReq_miss_rate::switch_cpus.inst     0.000010                       # miss rate for ReadReq accesses
system.cpu.icache.ReadReq_miss_rate::total     0.000010                       # miss rate for ReadReq accesses
system.cpu.icache.demand_miss_rate::switch_cpus.inst     0.000010                       # miss rate for demand accesses
system.cpu.icache.demand_miss_rate::total     0.000010                       # miss rate for demand accesses
system.cpu.icache.overall_miss_rate::switch_cpus.inst     0.000010                       # miss rate for overall accesses
system.cpu.icache.overall_miss_rate::total     0.000010                       # miss rate for overall accesses
system.cpu.icache.ReadReq_avg_miss_latency::switch_cpus.inst 38306.812500                       # average ReadReq miss latency
system.cpu.icache.ReadReq_avg_miss_latency::total 38306.812500                       # average ReadReq miss latency
system.cpu.icache.demand_avg_miss_latency::switch_cpus.inst 38306.812500                       # average overall miss latency
system.cpu.icache.demand_avg_miss_latency::total 38306.812500                       # average overall miss latency
system.cpu.icache.overall_avg_miss_latency::switch_cpus.inst 38306.812500                       # average overall miss latency
system.cpu.icache.overall_avg_miss_latency::total 38306.812500                       # average overall miss latency
system.cpu.icache.blocked_cycles::no_mshrs            0                       # number of cycles access was blocked
system.cpu.icache.blocked_cycles::no_targets            0                       # number of cycles access was blocked
system.cpu.icache.blocked::no_mshrs                 0                       # number of cycles access was blocked
system.cpu.icache.blocked::no_targets               0                       # number of cycles access was blocked
system.cpu.icache.avg_blocked_cycles::no_mshrs          nan                       # average number of cycles each access was blocked
system.cpu.icache.avg_blocked_cycles::no_targets          nan                       # average number of cycles each access was blocked
system.cpu.icache.fast_writes                       0                       # number of fast writes performed
system.cpu.icache.cache_copies                      0                       # number of cache copies performed
system.cpu.icache.ReadReq_mshr_hits::switch_cpus.inst            2                       # number of ReadReq MSHR hits
system.cpu.icache.ReadReq_mshr_hits::total            2                       # number of ReadReq MSHR hits
system.cpu.icache.demand_mshr_hits::switch_cpus.inst            2                       # number of demand (read+write) MSHR hits
system.cpu.icache.demand_mshr_hits::total            2                       # number of demand (read+write) MSHR hits
system.cpu.icache.overall_mshr_hits::switch_cpus.inst            2                       # number of overall MSHR hits
system.cpu.icache.overall_mshr_hits::total            2                       # number of overall MSHR hits
system.cpu.icache.ReadReq_mshr_misses::switch_cpus.inst           14                       # number of ReadReq MSHR misses
system.cpu.icache.ReadReq_mshr_misses::total           14                       # number of ReadReq MSHR misses
system.cpu.icache.demand_mshr_misses::switch_cpus.inst           14                       # number of demand (read+write) MSHR misses
system.cpu.icache.demand_mshr_misses::total           14                       # number of demand (read+write) MSHR misses
system.cpu.icache.overall_mshr_misses::switch_cpus.inst           14                       # number of overall MSHR misses
system.cpu.icache.overall_mshr_misses::total           14                       # number of overall MSHR misses
system.cpu.icache.ReadReq_mshr_miss_latency::switch_cpus.inst       495097                       # number of ReadReq MSHR miss cycles
system.cpu.icache.ReadReq_mshr_miss_latency::total       495097                       # number of ReadReq MSHR miss cycles
system.cpu.icache.demand_mshr_miss_latency::switch_cpus.inst       495097                       # number of demand (read+write) MSHR miss cycles
system.cpu.icache.demand_mshr_miss_latency::total       495097                       # number of demand (read+write) MSHR miss cycles
system.cpu.icache.overall_mshr_miss_latency::switch_cpus.inst       495097                       # number of overall MSHR miss cycles
system.cpu.icache.overall_mshr_miss_latency::total       495097                       # number of overall MSHR miss cycles
system.cpu.icache.ReadReq_mshr_miss_rate::switch_cpus.inst     0.000009                       # mshr miss rate for ReadReq accesses
system.cpu.icache.ReadReq_mshr_miss_rate::total     0.000009                       # mshr miss rate for ReadReq accesses
system.cpu.icache.demand_mshr_miss_rate::switch_cpus.inst     0.000009                       # mshr miss rate for demand accesses
system.cpu.icache.demand_mshr_miss_rate::total     0.000009                       # mshr miss rate for demand accesses
system.cpu.icache.overall_mshr_miss_rate::switch_cpus.inst     0.000009                       # mshr miss rate for overall accesses
system.cpu.icache.overall_mshr_miss_rate::total     0.000009                       # mshr miss rate for overall accesses
system.cpu.icache.ReadReq_avg_mshr_miss_latency::switch_cpus.inst 35364.071429                       # average ReadReq mshr miss latency
system.cpu.icache.ReadReq_avg_mshr_miss_latency::total 35364.071429                       # average ReadReq mshr miss latency
system.cpu.icache.demand_avg_mshr_miss_latency::switch_cpus.inst 35364.071429                       # average overall mshr miss latency
system.cpu.icache.demand_avg_mshr_miss_latency::total 35364.071429                       # average overall mshr miss latency
system.cpu.icache.overall_avg_mshr_miss_latency::switch_cpus.inst 35364.071429                       # average overall mshr miss latency
system.cpu.icache.overall_avg_mshr_miss_latency::total 35364.071429                       # average overall mshr miss latency
system.cpu.icache.no_allocate_misses                0                       # Number of misses that were no-allocate
system.cpu.dcache.replacements                   7267                       # number of replacements
system.cpu.dcache.tagsinuse                       256                       # Cycle average of tags in use
system.cpu.dcache.total_refs                164721608                       # Total number of references to valid blocks.
system.cpu.dcache.sampled_refs                   7523                       # Sample count of references to valid blocks.
system.cpu.dcache.avg_refs               21895.734149                       # Average number of references to valid blocks.
system.cpu.dcache.warmup_cycle                      0                       # Cycle when the warmup percentage was hit.
system.cpu.dcache.occ_blocks::switch_cpus.data   223.469879                       # Average occupied blocks per requestor
system.cpu.dcache.occ_blocks::cpu.data      32.530121                       # Average occupied blocks per requestor
system.cpu.dcache.occ_percent::switch_cpus.data     0.872929                       # Average percentage of cache occupancy
system.cpu.dcache.occ_percent::cpu.data      0.127071                       # Average percentage of cache occupancy
system.cpu.dcache.occ_percent::total                1                       # Average percentage of cache occupancy
system.cpu.dcache.ReadReq_hits::switch_cpus.data      1057983                       # number of ReadReq hits
system.cpu.dcache.ReadReq_hits::total         1057983                       # number of ReadReq hits
system.cpu.dcache.WriteReq_hits::switch_cpus.data       699310                       # number of WriteReq hits
system.cpu.dcache.WriteReq_hits::total         699310                       # number of WriteReq hits
system.cpu.dcache.LoadLockedReq_hits::switch_cpus.data         2179                       # number of LoadLockedReq hits
system.cpu.dcache.LoadLockedReq_hits::total         2179                       # number of LoadLockedReq hits
system.cpu.dcache.StoreCondReq_hits::switch_cpus.data         1652                       # number of StoreCondReq hits
system.cpu.dcache.StoreCondReq_hits::total         1652                       # number of StoreCondReq hits
system.cpu.dcache.demand_hits::switch_cpus.data      1757293                       # number of demand (read+write) hits
system.cpu.dcache.demand_hits::total          1757293                       # number of demand (read+write) hits
system.cpu.dcache.overall_hits::switch_cpus.data      1757293                       # number of overall hits
system.cpu.dcache.overall_hits::total         1757293                       # number of overall hits
system.cpu.dcache.ReadReq_misses::switch_cpus.data        15865                       # number of ReadReq misses
system.cpu.dcache.ReadReq_misses::total         15865                       # number of ReadReq misses
system.cpu.dcache.demand_misses::switch_cpus.data        15865                       # number of demand (read+write) misses
system.cpu.dcache.demand_misses::total          15865                       # number of demand (read+write) misses
system.cpu.dcache.overall_misses::switch_cpus.data        15865                       # number of overall misses
system.cpu.dcache.overall_misses::total         15865                       # number of overall misses
system.cpu.dcache.ReadReq_miss_latency::switch_cpus.data    435108864                       # number of ReadReq miss cycles
system.cpu.dcache.ReadReq_miss_latency::total    435108864                       # number of ReadReq miss cycles
system.cpu.dcache.demand_miss_latency::switch_cpus.data    435108864                       # number of demand (read+write) miss cycles
system.cpu.dcache.demand_miss_latency::total    435108864                       # number of demand (read+write) miss cycles
system.cpu.dcache.overall_miss_latency::switch_cpus.data    435108864                       # number of overall miss cycles
system.cpu.dcache.overall_miss_latency::total    435108864                       # number of overall miss cycles
system.cpu.dcache.ReadReq_accesses::switch_cpus.data      1073848                       # number of ReadReq accesses(hits+misses)
system.cpu.dcache.ReadReq_accesses::total      1073848                       # number of ReadReq accesses(hits+misses)
system.cpu.dcache.WriteReq_accesses::switch_cpus.data       699310                       # number of WriteReq accesses(hits+misses)
system.cpu.dcache.WriteReq_accesses::total       699310                       # number of WriteReq accesses(hits+misses)
system.cpu.dcache.LoadLockedReq_accesses::switch_cpus.data         2179                       # number of LoadLockedReq accesses(hits+misses)
system.cpu.dcache.LoadLockedReq_accesses::total         2179                       # number of LoadLockedReq accesses(hits+misses)
system.cpu.dcache.StoreCondReq_accesses::switch_cpus.data         1652                       # number of StoreCondReq accesses(hits+misses)
system.cpu.dcache.StoreCondReq_accesses::total         1652                       # number of StoreCondReq accesses(hits+misses)
system.cpu.dcache.demand_accesses::switch_cpus.data      1773158                       # number of demand (read+write) accesses
system.cpu.dcache.demand_accesses::total      1773158                       # number of demand (read+write) accesses
system.cpu.dcache.overall_accesses::switch_cpus.data      1773158                       # number of overall (read+write) accesses
system.cpu.dcache.overall_accesses::total      1773158                       # number of overall (read+write) accesses
system.cpu.dcache.ReadReq_miss_rate::switch_cpus.data     0.014774                       # miss rate for ReadReq accesses
system.cpu.dcache.ReadReq_miss_rate::total     0.014774                       # miss rate for ReadReq accesses
system.cpu.dcache.demand_miss_rate::switch_cpus.data     0.008947                       # miss rate for demand accesses
system.cpu.dcache.demand_miss_rate::total     0.008947                       # miss rate for demand accesses
system.cpu.dcache.overall_miss_rate::switch_cpus.data     0.008947                       # miss rate for overall accesses
system.cpu.dcache.overall_miss_rate::total     0.008947                       # miss rate for overall accesses
system.cpu.dcache.ReadReq_avg_miss_latency::switch_cpus.data 27425.708415                       # average ReadReq miss latency
system.cpu.dcache.ReadReq_avg_miss_latency::total 27425.708415                       # average ReadReq miss latency
system.cpu.dcache.demand_avg_miss_latency::switch_cpus.data 27425.708415                       # average overall miss latency
system.cpu.dcache.demand_avg_miss_latency::total 27425.708415                       # average overall miss latency
system.cpu.dcache.overall_avg_miss_latency::switch_cpus.data 27425.708415                       # average overall miss latency
system.cpu.dcache.overall_avg_miss_latency::total 27425.708415                       # average overall miss latency
system.cpu.dcache.blocked_cycles::no_mshrs            0                       # number of cycles access was blocked
system.cpu.dcache.blocked_cycles::no_targets            0                       # number of cycles access was blocked
system.cpu.dcache.blocked::no_mshrs                 0                       # number of cycles access was blocked
system.cpu.dcache.blocked::no_targets               0                       # number of cycles access was blocked
system.cpu.dcache.avg_blocked_cycles::no_mshrs          nan                       # average number of cycles each access was blocked
system.cpu.dcache.avg_blocked_cycles::no_targets          nan                       # average number of cycles each access was blocked
system.cpu.dcache.fast_writes                       0                       # number of fast writes performed
system.cpu.dcache.cache_copies                      0                       # number of cache copies performed
system.cpu.dcache.writebacks::writebacks         2582                       # number of writebacks
system.cpu.dcache.writebacks::total              2582                       # number of writebacks
system.cpu.dcache.ReadReq_mshr_hits::switch_cpus.data         8598                       # number of ReadReq MSHR hits
system.cpu.dcache.ReadReq_mshr_hits::total         8598                       # number of ReadReq MSHR hits
system.cpu.dcache.demand_mshr_hits::switch_cpus.data         8598                       # number of demand (read+write) MSHR hits
system.cpu.dcache.demand_mshr_hits::total         8598                       # number of demand (read+write) MSHR hits
system.cpu.dcache.overall_mshr_hits::switch_cpus.data         8598                       # number of overall MSHR hits
system.cpu.dcache.overall_mshr_hits::total         8598                       # number of overall MSHR hits
system.cpu.dcache.ReadReq_mshr_misses::switch_cpus.data         7267                       # number of ReadReq MSHR misses
system.cpu.dcache.ReadReq_mshr_misses::total         7267                       # number of ReadReq MSHR misses
system.cpu.dcache.demand_mshr_misses::switch_cpus.data         7267                       # number of demand (read+write) MSHR misses
system.cpu.dcache.demand_mshr_misses::total         7267                       # number of demand (read+write) MSHR misses
system.cpu.dcache.overall_mshr_misses::switch_cpus.data         7267                       # number of overall MSHR misses
system.cpu.dcache.overall_mshr_misses::total         7267                       # number of overall MSHR misses
system.cpu.dcache.ReadReq_mshr_miss_latency::switch_cpus.data    101100473                       # number of ReadReq MSHR miss cycles
system.cpu.dcache.ReadReq_mshr_miss_latency::total    101100473                       # number of ReadReq MSHR miss cycles
system.cpu.dcache.demand_mshr_miss_latency::switch_cpus.data    101100473                       # number of demand (read+write) MSHR miss cycles
system.cpu.dcache.demand_mshr_miss_latency::total    101100473                       # number of demand (read+write) MSHR miss cycles
system.cpu.dcache.overall_mshr_miss_latency::switch_cpus.data    101100473                       # number of overall MSHR miss cycles
system.cpu.dcache.overall_mshr_miss_latency::total    101100473                       # number of overall MSHR miss cycles
system.cpu.dcache.ReadReq_mshr_miss_rate::switch_cpus.data     0.006767                       # mshr miss rate for ReadReq accesses
system.cpu.dcache.ReadReq_mshr_miss_rate::total     0.006767                       # mshr miss rate for ReadReq accesses
system.cpu.dcache.demand_mshr_miss_rate::switch_cpus.data     0.004098                       # mshr miss rate for demand accesses
system.cpu.dcache.demand_mshr_miss_rate::total     0.004098                       # mshr miss rate for demand accesses
system.cpu.dcache.overall_mshr_miss_rate::switch_cpus.data     0.004098                       # mshr miss rate for overall accesses
system.cpu.dcache.overall_mshr_miss_rate::total     0.004098                       # mshr miss rate for overall accesses
system.cpu.dcache.ReadReq_avg_mshr_miss_latency::switch_cpus.data 13912.270951                       # average ReadReq mshr miss latency
system.cpu.dcache.ReadReq_avg_mshr_miss_latency::total 13912.270951                       # average ReadReq mshr miss latency
system.cpu.dcache.demand_avg_mshr_miss_latency::switch_cpus.data 13912.270951                       # average overall mshr miss latency
system.cpu.dcache.demand_avg_mshr_miss_latency::total 13912.270951                       # average overall mshr miss latency
system.cpu.dcache.overall_avg_mshr_miss_latency::switch_cpus.data 13912.270951                       # average overall mshr miss latency
system.cpu.dcache.overall_avg_mshr_miss_latency::total 13912.270951                       # average overall mshr miss latency
system.cpu.dcache.no_allocate_misses                0                       # Number of misses that were no-allocate

---------- End Simulation Statistics   ----------
