
---------- Begin Simulation Statistics ----------
sim_seconds                                  0.117144                       # Number of seconds simulated
sim_ticks                                117144405154                       # Number of ticks simulated
final_tick                               1168490385146                       # Number of ticks from beginning of simulation (restored from checkpoints and never reset)
sim_freq                                 1000000000000                       # Frequency of simulated ticks
host_inst_rate                                 161072                       # Simulator instruction rate (inst/s)
host_op_rate                                   208845                       # Simulator op (including micro ops) rate (op/s)
host_tick_rate                                5914672                       # Simulator tick rate (ticks/s)
host_mem_usage                               16907900                       # Number of bytes of host memory used
host_seconds                                 19805.73                       # Real time elapsed on the host
sim_insts                                  3190153762                       # Number of instructions simulated
sim_ops                                    4136329519                       # Number of ops (including micro ops) simulated
system.physmem.bytes_read::switch_cpus0.inst         1920                       # Number of bytes read from this memory
system.physmem.bytes_read::switch_cpus0.data       635648                       # Number of bytes read from this memory
system.physmem.bytes_read::switch_cpus1.inst         1792                       # Number of bytes read from this memory
system.physmem.bytes_read::switch_cpus1.data      1561216                       # Number of bytes read from this memory
system.physmem.bytes_read::switch_cpus2.inst         1280                       # Number of bytes read from this memory
system.physmem.bytes_read::switch_cpus2.data      1752448                       # Number of bytes read from this memory
system.physmem.bytes_read::total              3954304                       # Number of bytes read from this memory
system.physmem.bytes_inst_read::switch_cpus0.inst         1920                       # Number of instructions bytes read from this memory
system.physmem.bytes_inst_read::switch_cpus1.inst         1792                       # Number of instructions bytes read from this memory
system.physmem.bytes_inst_read::switch_cpus2.inst         1280                       # Number of instructions bytes read from this memory
system.physmem.bytes_inst_read::total            4992                       # Number of instructions bytes read from this memory
system.physmem.bytes_written::writebacks      1173888                       # Number of bytes written to this memory
system.physmem.bytes_written::total           1173888                       # Number of bytes written to this memory
system.physmem.num_reads::switch_cpus0.inst           15                       # Number of read requests responded to by this memory
system.physmem.num_reads::switch_cpus0.data         4966                       # Number of read requests responded to by this memory
system.physmem.num_reads::switch_cpus1.inst           14                       # Number of read requests responded to by this memory
system.physmem.num_reads::switch_cpus1.data        12197                       # Number of read requests responded to by this memory
system.physmem.num_reads::switch_cpus2.inst           10                       # Number of read requests responded to by this memory
system.physmem.num_reads::switch_cpus2.data        13691                       # Number of read requests responded to by this memory
system.physmem.num_reads::total                 30893                       # Number of read requests responded to by this memory
system.physmem.num_writes::writebacks            9171                       # Number of write requests responded to by this memory
system.physmem.num_writes::functional               0                       # Number of write requests responded to by this memory
system.physmem.num_writes::interrupt                0                       # Number of write requests responded to by this memory
system.physmem.num_writes::switch_cpus0.dtb.walker            0                       # Number of write requests responded to by this memory
system.physmem.num_writes::switch_cpus0.itb.walker            0                       # Number of write requests responded to by this memory
system.physmem.num_writes::switch_cpus0.inst            0                       # Number of write requests responded to by this memory
system.physmem.num_writes::switch_cpus0.data            0                       # Number of write requests responded to by this memory
system.physmem.num_writes::switch_cpus1.dtb.walker            0                       # Number of write requests responded to by this memory
system.physmem.num_writes::switch_cpus1.itb.walker            0                       # Number of write requests responded to by this memory
system.physmem.num_writes::switch_cpus1.inst            0                       # Number of write requests responded to by this memory
system.physmem.num_writes::switch_cpus1.data            0                       # Number of write requests responded to by this memory
system.physmem.num_writes::switch_cpus2.dtb.walker            0                       # Number of write requests responded to by this memory
system.physmem.num_writes::switch_cpus2.itb.walker            0                       # Number of write requests responded to by this memory
system.physmem.num_writes::switch_cpus2.inst            0                       # Number of write requests responded to by this memory
system.physmem.num_writes::switch_cpus2.data            0                       # Number of write requests responded to by this memory
system.physmem.num_writes::cpu0.dtb.walker            0                       # Number of write requests responded to by this memory
system.physmem.num_writes::cpu0.itb.walker            0                       # Number of write requests responded to by this memory
system.physmem.num_writes::cpu0.inst                0                       # Number of write requests responded to by this memory
system.physmem.num_writes::cpu0.data                0                       # Number of write requests responded to by this memory
system.physmem.num_writes::cpu1.dtb.walker            0                       # Number of write requests responded to by this memory
system.physmem.num_writes::cpu1.itb.walker            0                       # Number of write requests responded to by this memory
system.physmem.num_writes::cpu1.inst                0                       # Number of write requests responded to by this memory
system.physmem.num_writes::cpu1.data                0                       # Number of write requests responded to by this memory
system.physmem.num_writes::cpu2.dtb.walker            0                       # Number of write requests responded to by this memory
system.physmem.num_writes::cpu2.itb.walker            0                       # Number of write requests responded to by this memory
system.physmem.num_writes::cpu2.inst                0                       # Number of write requests responded to by this memory
system.physmem.num_writes::cpu2.data                0                       # Number of write requests responded to by this memory
system.physmem.num_writes::total                 9171                       # Number of write requests responded to by this memory
system.physmem.bw_read::switch_cpus0.inst        16390                       # Total read bandwidth from this memory (bytes/s)
system.physmem.bw_read::switch_cpus0.data      5426192                       # Total read bandwidth from this memory (bytes/s)
system.physmem.bw_read::switch_cpus1.inst        15297                       # Total read bandwidth from this memory (bytes/s)
system.physmem.bw_read::switch_cpus1.data     13327278                       # Total read bandwidth from this memory (bytes/s)
system.physmem.bw_read::switch_cpus2.inst        10927                       # Total read bandwidth from this memory (bytes/s)
system.physmem.bw_read::switch_cpus2.data     14959724                       # Total read bandwidth from this memory (bytes/s)
system.physmem.bw_read::total                33755808                       # Total read bandwidth from this memory (bytes/s)
system.physmem.bw_inst_read::switch_cpus0.inst        16390                       # Instruction read bandwidth from this memory (bytes/s)
system.physmem.bw_inst_read::switch_cpus1.inst        15297                       # Instruction read bandwidth from this memory (bytes/s)
system.physmem.bw_inst_read::switch_cpus2.inst        10927                       # Instruction read bandwidth from this memory (bytes/s)
system.physmem.bw_inst_read::total              42614                       # Instruction read bandwidth from this memory (bytes/s)
system.physmem.bw_write::writebacks          10020863                       # Write bandwidth from this memory (bytes/s)
system.physmem.bw_write::total               10020863                       # Write bandwidth from this memory (bytes/s)
system.physmem.bw_total::writebacks          10020863                       # Total bandwidth to/from this memory (bytes/s)
system.physmem.bw_total::switch_cpus0.inst        16390                       # Total bandwidth to/from this memory (bytes/s)
system.physmem.bw_total::switch_cpus0.data      5426192                       # Total bandwidth to/from this memory (bytes/s)
system.physmem.bw_total::switch_cpus1.inst        15297                       # Total bandwidth to/from this memory (bytes/s)
system.physmem.bw_total::switch_cpus1.data     13327278                       # Total bandwidth to/from this memory (bytes/s)
system.physmem.bw_total::switch_cpus2.inst        10927                       # Total bandwidth to/from this memory (bytes/s)
system.physmem.bw_total::switch_cpus2.data     14959724                       # Total bandwidth to/from this memory (bytes/s)
system.physmem.bw_total::total               43776670                       # Total bandwidth to/from this memory (bytes/s)
system.switch_cpus0.dtb.inst_hits                   0                       # ITB inst hits
system.switch_cpus0.dtb.inst_misses                 0                       # ITB inst misses
system.switch_cpus0.dtb.read_hits                   0                       # DTB read hits
system.switch_cpus0.dtb.read_misses                 0                       # DTB read misses
system.switch_cpus0.dtb.write_hits                  0                       # DTB write hits
system.switch_cpus0.dtb.write_misses                0                       # DTB write misses
system.switch_cpus0.dtb.flush_tlb                   0                       # Number of times complete TLB was flushed
system.switch_cpus0.dtb.flush_tlb_mva               0                       # Number of times TLB was flushed by MVA
system.switch_cpus0.dtb.flush_tlb_mva_asid            0                       # Number of times TLB was flushed by MVA & ASID
system.switch_cpus0.dtb.flush_tlb_asid              0                       # Number of times TLB was flushed by ASID
system.switch_cpus0.dtb.flush_entries               0                       # Number of entries that have been flushed from TLB
system.switch_cpus0.dtb.align_faults                0                       # Number of TLB faults due to alignment restrictions
system.switch_cpus0.dtb.prefetch_faults             0                       # Number of TLB faults due to prefetch
system.switch_cpus0.dtb.domain_faults               0                       # Number of TLB faults due to domain restrictions
system.switch_cpus0.dtb.perms_faults                0                       # Number of TLB faults due to permissions restrictions
system.switch_cpus0.dtb.read_accesses               0                       # DTB read accesses
system.switch_cpus0.dtb.write_accesses              0                       # DTB write accesses
system.switch_cpus0.dtb.inst_accesses               0                       # ITB inst accesses
system.switch_cpus0.dtb.hits                        0                       # DTB hits
system.switch_cpus0.dtb.misses                      0                       # DTB misses
system.switch_cpus0.dtb.accesses                    0                       # DTB accesses
system.switch_cpus0.itb.inst_hits                   0                       # ITB inst hits
system.switch_cpus0.itb.inst_misses                 0                       # ITB inst misses
system.switch_cpus0.itb.read_hits                   0                       # DTB read hits
system.switch_cpus0.itb.read_misses                 0                       # DTB read misses
system.switch_cpus0.itb.write_hits                  0                       # DTB write hits
system.switch_cpus0.itb.write_misses                0                       # DTB write misses
system.switch_cpus0.itb.flush_tlb                   0                       # Number of times complete TLB was flushed
system.switch_cpus0.itb.flush_tlb_mva               0                       # Number of times TLB was flushed by MVA
system.switch_cpus0.itb.flush_tlb_mva_asid            0                       # Number of times TLB was flushed by MVA & ASID
system.switch_cpus0.itb.flush_tlb_asid              0                       # Number of times TLB was flushed by ASID
system.switch_cpus0.itb.flush_entries               0                       # Number of entries that have been flushed from TLB
system.switch_cpus0.itb.align_faults                0                       # Number of TLB faults due to alignment restrictions
system.switch_cpus0.itb.prefetch_faults             0                       # Number of TLB faults due to prefetch
system.switch_cpus0.itb.domain_faults               0                       # Number of TLB faults due to domain restrictions
system.switch_cpus0.itb.perms_faults                0                       # Number of TLB faults due to permissions restrictions
system.switch_cpus0.itb.read_accesses               0                       # DTB read accesses
system.switch_cpus0.itb.write_accesses              0                       # DTB write accesses
system.switch_cpus0.itb.inst_accesses               0                       # ITB inst accesses
system.switch_cpus0.itb.hits                        0                       # DTB hits
system.switch_cpus0.itb.misses                      0                       # DTB misses
system.switch_cpus0.itb.accesses                    0                       # DTB accesses
system.cpu0.workload.num_syscalls                   0                       # Number of system calls
system.switch_cpus0.numCycles               140629539                       # number of cpu cycles simulated
system.switch_cpus0.numWorkItemsStarted             0                       # number of work items this cpu started
system.switch_cpus0.numWorkItemsCompleted            0                       # number of work items this cpu completed
system.switch_cpus0.BPredUnit.lookups        23685577                       # Number of BP lookups
system.switch_cpus0.BPredUnit.condPredicted     19404984                       # Number of conditional branches predicted
system.switch_cpus0.BPredUnit.condIncorrect      2009357                       # Number of conditional branches incorrect
system.switch_cpus0.BPredUnit.BTBLookups      9626749                       # Number of BTB lookups
system.switch_cpus0.BPredUnit.BTBHits         9356131                       # Number of BTB hits
system.switch_cpus0.BPredUnit.BTBCorrect            0                       # Number of correct BTB predictions (this stat may not work properly.
system.switch_cpus0.BPredUnit.usedRAS         2424748                       # Number of times the RAS was used to get a target.
system.switch_cpus0.BPredUnit.RASInCorrect        92285                       # Number of incorrect RAS predictions.
system.switch_cpus0.fetch.icacheStallCycles    105081780                       # Number of cycles fetch is stalled on an Icache miss
system.switch_cpus0.fetch.Insts             127125886                       # Number of instructions fetch has processed
system.switch_cpus0.fetch.Branches           23685577                       # Number of branches that fetch encountered
system.switch_cpus0.fetch.predictedBranches     11780879                       # Number of branches that fetch has predicted taken
system.switch_cpus0.fetch.Cycles             27541759                       # Number of cycles fetch has run and was not squashing or blocked
system.switch_cpus0.fetch.SquashCycles        6021430                       # Number of cycles fetch has spent squashing
system.switch_cpus0.fetch.BlockedCycles       3499316                       # Number of cycles fetch has spent blocked
system.switch_cpus0.fetch.CacheLines         12294829                       # Number of cache lines fetched
system.switch_cpus0.fetch.IcacheSquashes      1571148                       # Number of outstanding Icache misses that were squashed
system.switch_cpus0.fetch.rateDist::samples    140117635                       # Number of instructions fetched each cycle (Total)
system.switch_cpus0.fetch.rateDist::mean     1.110303                       # Number of instructions fetched each cycle (Total)
system.switch_cpus0.fetch.rateDist::stdev     2.535055                       # Number of instructions fetched each cycle (Total)
system.switch_cpus0.fetch.rateDist::underflows            0      0.00%      0.00% # Number of instructions fetched each cycle (Total)
system.switch_cpus0.fetch.rateDist::0       112575876     80.34%     80.34% # Number of instructions fetched each cycle (Total)
system.switch_cpus0.fetch.rateDist::1         2221467      1.59%     81.93% # Number of instructions fetched each cycle (Total)
system.switch_cpus0.fetch.rateDist::2         3772413      2.69%     84.62% # Number of instructions fetched each cycle (Total)
system.switch_cpus0.fetch.rateDist::3         2194486      1.57%     86.19% # Number of instructions fetched each cycle (Total)
system.switch_cpus0.fetch.rateDist::4         1718900      1.23%     87.41% # Number of instructions fetched each cycle (Total)
system.switch_cpus0.fetch.rateDist::5         1516102      1.08%     88.50% # Number of instructions fetched each cycle (Total)
system.switch_cpus0.fetch.rateDist::6          927717      0.66%     89.16% # Number of instructions fetched each cycle (Total)
system.switch_cpus0.fetch.rateDist::7         2324489      1.66%     90.82% # Number of instructions fetched each cycle (Total)
system.switch_cpus0.fetch.rateDist::8        12866185      9.18%    100.00% # Number of instructions fetched each cycle (Total)
system.switch_cpus0.fetch.rateDist::overflows            0      0.00%    100.00% # Number of instructions fetched each cycle (Total)
system.switch_cpus0.fetch.rateDist::min_value            0                       # Number of instructions fetched each cycle (Total)
system.switch_cpus0.fetch.rateDist::max_value            8                       # Number of instructions fetched each cycle (Total)
system.switch_cpus0.fetch.rateDist::total    140117635                       # Number of instructions fetched each cycle (Total)
system.switch_cpus0.fetch.branchRate         0.168425                       # Number of branch fetches per cycle
system.switch_cpus0.fetch.rate               0.903977                       # Number of inst fetches per cycle
system.switch_cpus0.decode.IdleCycles       104418282                       # Number of cycles decode is idle
system.switch_cpus0.decode.BlockedCycles      4672480                       # Number of cycles decode is blocked
system.switch_cpus0.decode.RunCycles         26961075                       # Number of cycles decode is running
system.switch_cpus0.decode.UnblockCycles        71219                       # Number of cycles decode is unblocking
system.switch_cpus0.decode.SquashCycles       3994571                       # Number of cycles decode is squashing
system.switch_cpus0.decode.BranchResolved      3882762                       # Number of times decode resolved a branch
system.switch_cpus0.decode.BranchMispred          211                       # Number of times decode detected a branch misprediction
system.switch_cpus0.decode.DecodedInsts     153259230                       # Number of instructions handled by decode
system.switch_cpus0.decode.SquashedInsts         1204                       # Number of squashed instructions handled by decode
system.switch_cpus0.rename.SquashCycles       3994571                       # Number of cycles rename is squashing
system.switch_cpus0.rename.IdleCycles       104945316                       # Number of cycles rename is idle
system.switch_cpus0.rename.BlockCycles         599172                       # Number of cycles rename is blocking
system.switch_cpus0.rename.serializeStallCycles      3172913                       # count of cycles rename stalled for serializing inst
system.switch_cpus0.rename.RunCycles         26488135                       # Number of cycles rename is running
system.switch_cpus0.rename.UnblockCycles       917521                       # Number of cycles rename is unblocking
system.switch_cpus0.rename.RenamedInsts     152220720                       # Number of instructions processed by rename
system.switch_cpus0.rename.IQFullEvents         93608                       # Number of times rename has blocked due to IQ full
system.switch_cpus0.rename.LSQFullEvents       529198                       # Number of times rename has blocked due to LSQ full
system.switch_cpus0.rename.RenamedOperands    214908725                       # Number of destination operands rename has renamed
system.switch_cpus0.rename.RenameLookups    708175271                       # Number of register rename lookups that rename has made
system.switch_cpus0.rename.int_rename_lookups    708175271                       # Number of integer rename lookups
system.switch_cpus0.rename.CommittedMaps    171990357                       # Number of HB maps that are committed
system.switch_cpus0.rename.UndoneMaps        42918350                       # Number of HB maps that are undone due to squashing
system.switch_cpus0.rename.serializingInsts        34227                       # count of serializing insts renamed
system.switch_cpus0.rename.tempSerializingInsts        17140                       # count of temporary serializing insts renamed
system.switch_cpus0.rename.skidInsts          2668705                       # count of insts added to the skid buffer
system.switch_cpus0.memDep0.insertedLoads     14152920                       # Number of loads inserted to the mem dependence unit.
system.switch_cpus0.memDep0.insertedStores      7225965                       # Number of stores inserted to the mem dependence unit.
system.switch_cpus0.memDep0.conflictingLoads        70194                       # Number of conflicting loads.
system.switch_cpus0.memDep0.conflictingStores      1644278                       # Number of conflicting stores.
system.switch_cpus0.iq.iqInstsAdded         147224092                       # Number of instructions added to the IQ (excludes non-spec)
system.switch_cpus0.iq.iqNonSpecInstsAdded        34228                       # Number of non-speculative instructions added to the IQ
system.switch_cpus0.iq.iqInstsIssued        138175335                       # Number of instructions issued
system.switch_cpus0.iq.iqSquashedInstsIssued        88643                       # Number of squashed instructions issued
system.switch_cpus0.iq.iqSquashedInstsExamined     21977278                       # Number of squashed instructions iterated over during squash; mainly for profiling
system.switch_cpus0.iq.iqSquashedOperandsExamined     48776262                       # Number of squashed operands that are examined and possibly removed from graph
system.switch_cpus0.iq.iqSquashedNonSpecRemoved           52                       # Number of squashed non-spec instructions that were removed
system.switch_cpus0.iq.issued_per_cycle::samples    140117635                       # Number of insts issued each cycle
system.switch_cpus0.iq.issued_per_cycle::mean     0.986138                       # Number of insts issued each cycle
system.switch_cpus0.iq.issued_per_cycle::stdev     1.547263                       # Number of insts issued each cycle
system.switch_cpus0.iq.issued_per_cycle::underflows            0      0.00%      0.00% # Number of insts issued each cycle
system.switch_cpus0.iq.issued_per_cycle::0     83743685     59.77%     59.77% # Number of insts issued each cycle
system.switch_cpus0.iq.issued_per_cycle::1     21633560     15.44%     75.21% # Number of insts issued each cycle
system.switch_cpus0.iq.issued_per_cycle::2     11647907      8.31%     83.52% # Number of insts issued each cycle
system.switch_cpus0.iq.issued_per_cycle::3      8659362      6.18%     89.70% # Number of insts issued each cycle
system.switch_cpus0.iq.issued_per_cycle::4      8441776      6.02%     95.72% # Number of insts issued each cycle
system.switch_cpus0.iq.issued_per_cycle::5      3122619      2.23%     97.95% # Number of insts issued each cycle
system.switch_cpus0.iq.issued_per_cycle::6      2372525      1.69%     99.65% # Number of insts issued each cycle
system.switch_cpus0.iq.issued_per_cycle::7       317082      0.23%     99.87% # Number of insts issued each cycle
system.switch_cpus0.iq.issued_per_cycle::8       179119      0.13%    100.00% # Number of insts issued each cycle
system.switch_cpus0.iq.issued_per_cycle::overflows            0      0.00%    100.00% # Number of insts issued each cycle
system.switch_cpus0.iq.issued_per_cycle::min_value            0                       # Number of insts issued each cycle
system.switch_cpus0.iq.issued_per_cycle::max_value            8                       # Number of insts issued each cycle
system.switch_cpus0.iq.issued_per_cycle::total    140117635                       # Number of insts issued each cycle
system.switch_cpus0.iq.fu_full::No_OpClass            0      0.00%      0.00% # attempts to use FU when none available
system.switch_cpus0.iq.fu_full::IntAlu         123162     28.05%     28.05% # attempts to use FU when none available
system.switch_cpus0.iq.fu_full::IntMult             0      0.00%     28.05% # attempts to use FU when none available
system.switch_cpus0.iq.fu_full::IntDiv              0      0.00%     28.05% # attempts to use FU when none available
system.switch_cpus0.iq.fu_full::FloatAdd            0      0.00%     28.05% # attempts to use FU when none available
system.switch_cpus0.iq.fu_full::FloatCmp            0      0.00%     28.05% # attempts to use FU when none available
system.switch_cpus0.iq.fu_full::FloatCvt            0      0.00%     28.05% # attempts to use FU when none available
system.switch_cpus0.iq.fu_full::FloatMult            0      0.00%     28.05% # attempts to use FU when none available
system.switch_cpus0.iq.fu_full::FloatDiv            0      0.00%     28.05% # attempts to use FU when none available
system.switch_cpus0.iq.fu_full::FloatSqrt            0      0.00%     28.05% # attempts to use FU when none available
system.switch_cpus0.iq.fu_full::SimdAdd             0      0.00%     28.05% # attempts to use FU when none available
system.switch_cpus0.iq.fu_full::SimdAddAcc            0      0.00%     28.05% # attempts to use FU when none available
system.switch_cpus0.iq.fu_full::SimdAlu             0      0.00%     28.05% # attempts to use FU when none available
system.switch_cpus0.iq.fu_full::SimdCmp             0      0.00%     28.05% # attempts to use FU when none available
system.switch_cpus0.iq.fu_full::SimdCvt             0      0.00%     28.05% # attempts to use FU when none available
system.switch_cpus0.iq.fu_full::SimdMisc            0      0.00%     28.05% # attempts to use FU when none available
system.switch_cpus0.iq.fu_full::SimdMult            0      0.00%     28.05% # attempts to use FU when none available
system.switch_cpus0.iq.fu_full::SimdMultAcc            0      0.00%     28.05% # attempts to use FU when none available
system.switch_cpus0.iq.fu_full::SimdShift            0      0.00%     28.05% # attempts to use FU when none available
system.switch_cpus0.iq.fu_full::SimdShiftAcc            0      0.00%     28.05% # attempts to use FU when none available
system.switch_cpus0.iq.fu_full::SimdSqrt            0      0.00%     28.05% # attempts to use FU when none available
system.switch_cpus0.iq.fu_full::SimdFloatAdd            0      0.00%     28.05% # attempts to use FU when none available
system.switch_cpus0.iq.fu_full::SimdFloatAlu            0      0.00%     28.05% # attempts to use FU when none available
system.switch_cpus0.iq.fu_full::SimdFloatCmp            0      0.00%     28.05% # attempts to use FU when none available
system.switch_cpus0.iq.fu_full::SimdFloatCvt            0      0.00%     28.05% # attempts to use FU when none available
system.switch_cpus0.iq.fu_full::SimdFloatDiv            0      0.00%     28.05% # attempts to use FU when none available
system.switch_cpus0.iq.fu_full::SimdFloatMisc            0      0.00%     28.05% # attempts to use FU when none available
system.switch_cpus0.iq.fu_full::SimdFloatMult            0      0.00%     28.05% # attempts to use FU when none available
system.switch_cpus0.iq.fu_full::SimdFloatMultAcc            0      0.00%     28.05% # attempts to use FU when none available
system.switch_cpus0.iq.fu_full::SimdFloatSqrt            0      0.00%     28.05% # attempts to use FU when none available
system.switch_cpus0.iq.fu_full::MemRead        164239     37.40%     65.45% # attempts to use FU when none available
system.switch_cpus0.iq.fu_full::MemWrite       151705     34.55%    100.00% # attempts to use FU when none available
system.switch_cpus0.iq.fu_full::IprAccess            0      0.00%    100.00% # attempts to use FU when none available
system.switch_cpus0.iq.fu_full::InstPrefetch            0      0.00%    100.00% # attempts to use FU when none available
system.switch_cpus0.iq.FU_type_0::No_OpClass            0      0.00%      0.00% # Type of FU issued
system.switch_cpus0.iq.FU_type_0::IntAlu    116626742     84.40%     84.40% # Type of FU issued
system.switch_cpus0.iq.FU_type_0::IntMult      1870600      1.35%     85.76% # Type of FU issued
system.switch_cpus0.iq.FU_type_0::IntDiv            0      0.00%     85.76% # Type of FU issued
system.switch_cpus0.iq.FU_type_0::FloatAdd            0      0.00%     85.76% # Type of FU issued
system.switch_cpus0.iq.FU_type_0::FloatCmp            0      0.00%     85.76% # Type of FU issued
system.switch_cpus0.iq.FU_type_0::FloatCvt            0      0.00%     85.76% # Type of FU issued
system.switch_cpus0.iq.FU_type_0::FloatMult            0      0.00%     85.76% # Type of FU issued
system.switch_cpus0.iq.FU_type_0::FloatDiv            0      0.00%     85.76% # Type of FU issued
system.switch_cpus0.iq.FU_type_0::FloatSqrt            0      0.00%     85.76% # Type of FU issued
system.switch_cpus0.iq.FU_type_0::SimdAdd            0      0.00%     85.76% # Type of FU issued
system.switch_cpus0.iq.FU_type_0::SimdAddAcc            0      0.00%     85.76% # Type of FU issued
system.switch_cpus0.iq.FU_type_0::SimdAlu            0      0.00%     85.76% # Type of FU issued
system.switch_cpus0.iq.FU_type_0::SimdCmp            0      0.00%     85.76% # Type of FU issued
system.switch_cpus0.iq.FU_type_0::SimdCvt            0      0.00%     85.76% # Type of FU issued
system.switch_cpus0.iq.FU_type_0::SimdMisc            0      0.00%     85.76% # Type of FU issued
system.switch_cpus0.iq.FU_type_0::SimdMult            0      0.00%     85.76% # Type of FU issued
system.switch_cpus0.iq.FU_type_0::SimdMultAcc            0      0.00%     85.76% # Type of FU issued
system.switch_cpus0.iq.FU_type_0::SimdShift            0      0.00%     85.76% # Type of FU issued
system.switch_cpus0.iq.FU_type_0::SimdShiftAcc            0      0.00%     85.76% # Type of FU issued
system.switch_cpus0.iq.FU_type_0::SimdSqrt            0      0.00%     85.76% # Type of FU issued
system.switch_cpus0.iq.FU_type_0::SimdFloatAdd            0      0.00%     85.76% # Type of FU issued
system.switch_cpus0.iq.FU_type_0::SimdFloatAlu            0      0.00%     85.76% # Type of FU issued
system.switch_cpus0.iq.FU_type_0::SimdFloatCmp            0      0.00%     85.76% # Type of FU issued
system.switch_cpus0.iq.FU_type_0::SimdFloatCvt            0      0.00%     85.76% # Type of FU issued
system.switch_cpus0.iq.FU_type_0::SimdFloatDiv            0      0.00%     85.76% # Type of FU issued
system.switch_cpus0.iq.FU_type_0::SimdFloatMisc        17087      0.01%     85.77% # Type of FU issued
system.switch_cpus0.iq.FU_type_0::SimdFloatMult            0      0.00%     85.77% # Type of FU issued
system.switch_cpus0.iq.FU_type_0::SimdFloatMultAcc            0      0.00%     85.77% # Type of FU issued
system.switch_cpus0.iq.FU_type_0::SimdFloatSqrt            0      0.00%     85.77% # Type of FU issued
system.switch_cpus0.iq.FU_type_0::MemRead     12459893      9.02%     94.79% # Type of FU issued
system.switch_cpus0.iq.FU_type_0::MemWrite      7201013      5.21%    100.00% # Type of FU issued
system.switch_cpus0.iq.FU_type_0::IprAccess            0      0.00%    100.00% # Type of FU issued
system.switch_cpus0.iq.FU_type_0::InstPrefetch            0      0.00%    100.00% # Type of FU issued
system.switch_cpus0.iq.FU_type_0::total     138175335                       # Type of FU issued
system.switch_cpus0.iq.rate                  0.982548                       # Inst issue rate
system.switch_cpus0.iq.fu_busy_cnt             439106                       # FU busy when requested
system.switch_cpus0.iq.fu_busy_rate          0.003178                       # FU busy rate (busy events/executed inst)
system.switch_cpus0.iq.int_inst_queue_reads    416996048                       # Number of integer instruction queue reads
system.switch_cpus0.iq.int_inst_queue_writes    169235832                       # Number of integer instruction queue writes
system.switch_cpus0.iq.int_inst_queue_wakeup_accesses    135223932                       # Number of integer instruction queue wakeup accesses
system.switch_cpus0.iq.fp_inst_queue_reads            0                       # Number of floating instruction queue reads
system.switch_cpus0.iq.fp_inst_queue_writes            0                       # Number of floating instruction queue writes
system.switch_cpus0.iq.fp_inst_queue_wakeup_accesses            0                       # Number of floating instruction queue wakeup accesses
system.switch_cpus0.iq.int_alu_accesses     138614441                       # Number of integer alu accesses
system.switch_cpus0.iq.fp_alu_accesses              0                       # Number of floating point alu accesses
system.switch_cpus0.iew.lsq.thread0.forwLoads       282421                       # Number of loads that had data forwarded from stores
system.switch_cpus0.iew.lsq.thread0.invAddrLoads            0                       # Number of loads ignored due to an invalid address
system.switch_cpus0.iew.lsq.thread0.squashedLoads      2977113                       # Number of loads squashed
system.switch_cpus0.iew.lsq.thread0.ignoredResponses            2                       # Number of memory responses ignored because the instruction is squashed
system.switch_cpus0.iew.lsq.thread0.memOrderViolation          234                       # Number of memory ordering violations
system.switch_cpus0.iew.lsq.thread0.squashedStores       118942                       # Number of stores squashed
system.switch_cpus0.iew.lsq.thread0.invAddrSwpfs            0                       # Number of software prefetches ignored due to an invalid address
system.switch_cpus0.iew.lsq.thread0.blockedLoads            0                       # Number of blocked loads due to partial load-store forwarding
system.switch_cpus0.iew.lsq.thread0.rescheduledLoads            0                       # Number of loads that were rescheduled
system.switch_cpus0.iew.lsq.thread0.cacheBlocked            0                       # Number of times an access to memory failed due to the cache being blocked
system.switch_cpus0.iew.iewIdleCycles               0                       # Number of cycles IEW is idle
system.switch_cpus0.iew.iewSquashCycles       3994571                       # Number of cycles IEW is squashing
system.switch_cpus0.iew.iewBlockCycles         401421                       # Number of cycles IEW is blocking
system.switch_cpus0.iew.iewUnblockCycles        53459                       # Number of cycles IEW is unblocking
system.switch_cpus0.iew.iewDispatchedInsts    147258320                       # Number of instructions dispatched to IQ
system.switch_cpus0.iew.iewDispSquashedInsts       766165                       # Number of squashed instructions skipped by dispatch
system.switch_cpus0.iew.iewDispLoadInsts     14152920                       # Number of dispatched load instructions
system.switch_cpus0.iew.iewDispStoreInsts      7225965                       # Number of dispatched store instructions
system.switch_cpus0.iew.iewDispNonSpecInsts        17140                       # Number of dispatched non-speculative instructions
system.switch_cpus0.iew.iewIQFullEvents         43302                       # Number of times the IQ has become full, causing a stall
system.switch_cpus0.iew.iewLSQFullEvents            0                       # Number of times the LSQ has become full, causing a stall
system.switch_cpus0.iew.memOrderViolationEvents          234                       # Number of memory order violations
system.switch_cpus0.iew.predictedTakenIncorrect      1154051                       # Number of branches that were predicted taken incorrectly
system.switch_cpus0.iew.predictedNotTakenIncorrect      1070903                       # Number of branches that were predicted not taken incorrectly
system.switch_cpus0.iew.branchMispredicts      2224954                       # Number of branch mispredicts detected at execute
system.switch_cpus0.iew.iewExecutedInsts    136021573                       # Number of executed instructions
system.switch_cpus0.iew.iewExecLoadInsts     12146426                       # Number of load instructions executed
system.switch_cpus0.iew.iewExecSquashedInsts      2153756                       # Number of squashed instructions skipped in execute
system.switch_cpus0.iew.exec_swp                    0                       # number of swp insts executed
system.switch_cpus0.iew.exec_nop                    0                       # number of nop insts executed
system.switch_cpus0.iew.exec_refs            19347224                       # number of memory reference insts executed
system.switch_cpus0.iew.exec_branches        19248828                       # Number of branches executed
system.switch_cpus0.iew.exec_stores           7200798                       # Number of stores executed
system.switch_cpus0.iew.exec_rate            0.967233                       # Inst execution rate
system.switch_cpus0.iew.wb_sent             135223991                       # cumulative count of insts sent to commit
system.switch_cpus0.iew.wb_count            135223932                       # cumulative count of insts written-back
system.switch_cpus0.iew.wb_producers         79953869                       # num instructions producing a value
system.switch_cpus0.iew.wb_consumers        221522363                       # num instructions consuming a value
system.switch_cpus0.iew.wb_penalized                0                       # number of instrctions required to write to 'other' IQ
system.switch_cpus0.iew.wb_rate              0.961561                       # insts written-back per cycle
system.switch_cpus0.iew.wb_fanout            0.360929                       # average fanout of values written-back
system.switch_cpus0.iew.wb_penalized_rate            0                       # fraction of instructions written-back that wrote to 'other' IQ
system.switch_cpus0.commit.commitCommittedInsts    100000001                       # The number of committed instructions
system.switch_cpus0.commit.commitCommittedOps    123264152                       # The number of committed instructions
system.switch_cpus0.commit.commitSquashedInsts     23994439                       # The number of squashed insts skipped by commit
system.switch_cpus0.commit.commitNonSpecStalls        34176                       # The number of times commit has been forced to stall to communicate backwards
system.switch_cpus0.commit.branchMispredicts      2026288                       # The number of times a branch was mispredicted
system.switch_cpus0.commit.committed_per_cycle::samples    136123064                       # Number of insts commited each cycle
system.switch_cpus0.commit.committed_per_cycle::mean     0.905535                       # Number of insts commited each cycle
system.switch_cpus0.commit.committed_per_cycle::stdev     1.714253                       # Number of insts commited each cycle
system.switch_cpus0.commit.committed_per_cycle::underflows            0      0.00%      0.00% # Number of insts commited each cycle
system.switch_cpus0.commit.committed_per_cycle::0     86270229     63.38%     63.38% # Number of insts commited each cycle
system.switch_cpus0.commit.committed_per_cycle::1     24028100     17.65%     81.03% # Number of insts commited each cycle
system.switch_cpus0.commit.committed_per_cycle::2      9397109      6.90%     87.93% # Number of insts commited each cycle
system.switch_cpus0.commit.committed_per_cycle::3      4941034      3.63%     91.56% # Number of insts commited each cycle
system.switch_cpus0.commit.committed_per_cycle::4      4206453      3.09%     94.65% # Number of insts commited each cycle
system.switch_cpus0.commit.committed_per_cycle::5      2023738      1.49%     96.14% # Number of insts commited each cycle
system.switch_cpus0.commit.committed_per_cycle::6       951240      0.70%     96.84% # Number of insts commited each cycle
system.switch_cpus0.commit.committed_per_cycle::7      1474498      1.08%     97.92% # Number of insts commited each cycle
system.switch_cpus0.commit.committed_per_cycle::8      2830663      2.08%    100.00% # Number of insts commited each cycle
system.switch_cpus0.commit.committed_per_cycle::overflows            0      0.00%    100.00% # Number of insts commited each cycle
system.switch_cpus0.commit.committed_per_cycle::min_value            0                       # Number of insts commited each cycle
system.switch_cpus0.commit.committed_per_cycle::max_value            8                       # Number of insts commited each cycle
system.switch_cpus0.commit.committed_per_cycle::total    136123064                       # Number of insts commited each cycle
system.switch_cpus0.commit.committedInsts    100000001                       # Number of instructions committed
system.switch_cpus0.commit.committedOps     123264152                       # Number of ops (including micro ops) committed
system.switch_cpus0.commit.swp_count                0                       # Number of s/w prefetches committed
system.switch_cpus0.commit.refs              18282827                       # Number of memory references committed
system.switch_cpus0.commit.loads             11175804                       # Number of loads committed
system.switch_cpus0.commit.membars              17088                       # Number of memory barriers committed
system.switch_cpus0.commit.branches          17884103                       # Number of branches committed
system.switch_cpus0.commit.fp_insts                 0                       # Number of committed floating point instructions.
system.switch_cpus0.commit.int_insts        110969711                       # Number of committed integer instructions.
system.switch_cpus0.commit.function_calls      2549483                       # Number of function calls committed.
system.switch_cpus0.commit.bw_lim_events      2830663                       # number cycles where commit BW limit reached
system.switch_cpus0.commit.bw_limited               0                       # number of insts not committed due to BW limits
system.switch_cpus0.rob.rob_reads           280550992                       # The number of ROB reads
system.switch_cpus0.rob.rob_writes          298513500                       # The number of ROB writes
system.switch_cpus0.timesIdled                  23559                       # Number of times that the entire CPU went into an idle state and unscheduled itself
system.switch_cpus0.idleCycles                 511904                       # Total number of cycles that the CPU has spent unscheduled due to idling
system.switch_cpus0.committedInsts          100000001                       # Number of Instructions Simulated
system.switch_cpus0.committedOps            123264152                       # Number of Ops (including micro ops) Simulated
system.switch_cpus0.committedInsts_total    100000001                       # Number of Instructions Simulated
system.switch_cpus0.cpi                      1.406295                       # CPI: Cycles Per Instruction
system.switch_cpus0.cpi_total                1.406295                       # CPI: Total CPI of All Threads
system.switch_cpus0.ipc                      0.711088                       # IPC: Instructions Per Cycle
system.switch_cpus0.ipc_total                0.711088                       # IPC: Total IPC of All Threads
system.switch_cpus0.int_regfile_reads       611669981                       # number of integer regfile reads
system.switch_cpus0.int_regfile_writes      188806148                       # number of integer regfile writes
system.switch_cpus0.misc_regfile_reads      143057493                       # number of misc regfile reads
system.switch_cpus0.misc_regfile_writes         34176                       # number of misc regfile writes
system.switch_cpus1.dtb.inst_hits                   0                       # ITB inst hits
system.switch_cpus1.dtb.inst_misses                 0                       # ITB inst misses
system.switch_cpus1.dtb.read_hits                   0                       # DTB read hits
system.switch_cpus1.dtb.read_misses                 0                       # DTB read misses
system.switch_cpus1.dtb.write_hits                  0                       # DTB write hits
system.switch_cpus1.dtb.write_misses                0                       # DTB write misses
system.switch_cpus1.dtb.flush_tlb                   0                       # Number of times complete TLB was flushed
system.switch_cpus1.dtb.flush_tlb_mva               0                       # Number of times TLB was flushed by MVA
system.switch_cpus1.dtb.flush_tlb_mva_asid            0                       # Number of times TLB was flushed by MVA & ASID
system.switch_cpus1.dtb.flush_tlb_asid              0                       # Number of times TLB was flushed by ASID
system.switch_cpus1.dtb.flush_entries               0                       # Number of entries that have been flushed from TLB
system.switch_cpus1.dtb.align_faults                0                       # Number of TLB faults due to alignment restrictions
system.switch_cpus1.dtb.prefetch_faults             0                       # Number of TLB faults due to prefetch
system.switch_cpus1.dtb.domain_faults               0                       # Number of TLB faults due to domain restrictions
system.switch_cpus1.dtb.perms_faults                0                       # Number of TLB faults due to permissions restrictions
system.switch_cpus1.dtb.read_accesses               0                       # DTB read accesses
system.switch_cpus1.dtb.write_accesses              0                       # DTB write accesses
system.switch_cpus1.dtb.inst_accesses               0                       # ITB inst accesses
system.switch_cpus1.dtb.hits                        0                       # DTB hits
system.switch_cpus1.dtb.misses                      0                       # DTB misses
system.switch_cpus1.dtb.accesses                    0                       # DTB accesses
system.switch_cpus1.itb.inst_hits                   0                       # ITB inst hits
system.switch_cpus1.itb.inst_misses                 0                       # ITB inst misses
system.switch_cpus1.itb.read_hits                   0                       # DTB read hits
system.switch_cpus1.itb.read_misses                 0                       # DTB read misses
system.switch_cpus1.itb.write_hits                  0                       # DTB write hits
system.switch_cpus1.itb.write_misses                0                       # DTB write misses
system.switch_cpus1.itb.flush_tlb                   0                       # Number of times complete TLB was flushed
system.switch_cpus1.itb.flush_tlb_mva               0                       # Number of times TLB was flushed by MVA
system.switch_cpus1.itb.flush_tlb_mva_asid            0                       # Number of times TLB was flushed by MVA & ASID
system.switch_cpus1.itb.flush_tlb_asid              0                       # Number of times TLB was flushed by ASID
system.switch_cpus1.itb.flush_entries               0                       # Number of entries that have been flushed from TLB
system.switch_cpus1.itb.align_faults                0                       # Number of TLB faults due to alignment restrictions
system.switch_cpus1.itb.prefetch_faults             0                       # Number of TLB faults due to prefetch
system.switch_cpus1.itb.domain_faults               0                       # Number of TLB faults due to domain restrictions
system.switch_cpus1.itb.perms_faults                0                       # Number of TLB faults due to permissions restrictions
system.switch_cpus1.itb.read_accesses               0                       # DTB read accesses
system.switch_cpus1.itb.write_accesses              0                       # DTB write accesses
system.switch_cpus1.itb.inst_accesses               0                       # ITB inst accesses
system.switch_cpus1.itb.hits                        0                       # DTB hits
system.switch_cpus1.itb.misses                      0                       # DTB misses
system.switch_cpus1.itb.accesses                    0                       # DTB accesses
system.cpu1.workload.num_syscalls                   0                       # Number of system calls
system.switch_cpus1.numCycles               140629539                       # number of cpu cycles simulated
system.switch_cpus1.numWorkItemsStarted             0                       # number of work items this cpu started
system.switch_cpus1.numWorkItemsCompleted            0                       # number of work items this cpu completed
system.switch_cpus1.BPredUnit.lookups        20867537                       # Number of BP lookups
system.switch_cpus1.BPredUnit.condPredicted     18287686                       # Number of conditional branches predicted
system.switch_cpus1.BPredUnit.condIncorrect      1627731                       # Number of conditional branches incorrect
system.switch_cpus1.BPredUnit.BTBLookups     10380324                       # Number of BTB lookups
system.switch_cpus1.BPredUnit.BTBHits        10073343                       # Number of BTB hits
system.switch_cpus1.BPredUnit.BTBCorrect            0                       # Number of correct BTB predictions (this stat may not work properly.
system.switch_cpus1.BPredUnit.usedRAS         1450916                       # Number of times the RAS was used to get a target.
system.switch_cpus1.BPredUnit.RASInCorrect        50923                       # Number of incorrect RAS predictions.
system.switch_cpus1.fetch.icacheStallCycles    110053259                       # Number of cycles fetch is stalled on an Icache miss
system.switch_cpus1.fetch.Insts             115984136                       # Number of instructions fetch has processed
system.switch_cpus1.fetch.Branches           20867537                       # Number of branches that fetch encountered
system.switch_cpus1.fetch.predictedBranches     11524259                       # Number of branches that fetch has predicted taken
system.switch_cpus1.fetch.Cycles             23590908                       # Number of cycles fetch has run and was not squashing or blocked
system.switch_cpus1.fetch.SquashCycles        5318623                       # Number of cycles fetch has spent squashing
system.switch_cpus1.fetch.BlockedCycles       1788275                       # Number of cycles fetch has spent blocked
system.switch_cpus1.fetch.CacheLines         12544254                       # Number of cache lines fetched
system.switch_cpus1.fetch.IcacheSquashes      1027584                       # Number of outstanding Icache misses that were squashed
system.switch_cpus1.fetch.rateDist::samples    139113842                       # Number of instructions fetched each cycle (Total)
system.switch_cpus1.fetch.rateDist::mean     0.948171                       # Number of instructions fetched each cycle (Total)
system.switch_cpus1.fetch.rateDist::stdev     2.317381                       # Number of instructions fetched each cycle (Total)
system.switch_cpus1.fetch.rateDist::underflows            0      0.00%      0.00% # Number of instructions fetched each cycle (Total)
system.switch_cpus1.fetch.rateDist::0       115522934     83.04%     83.04% # Number of instructions fetched each cycle (Total)
system.switch_cpus1.fetch.rateDist::1         1186276      0.85%     83.89% # Number of instructions fetched each cycle (Total)
system.switch_cpus1.fetch.rateDist::2         2167146      1.56%     85.45% # Number of instructions fetched each cycle (Total)
system.switch_cpus1.fetch.rateDist::3         1826152      1.31%     86.77% # Number of instructions fetched each cycle (Total)
system.switch_cpus1.fetch.rateDist::4         3338789      2.40%     89.17% # Number of instructions fetched each cycle (Total)
system.switch_cpus1.fetch.rateDist::5         3613433      2.60%     91.76% # Number of instructions fetched each cycle (Total)
system.switch_cpus1.fetch.rateDist::6          786305      0.57%     92.33% # Number of instructions fetched each cycle (Total)
system.switch_cpus1.fetch.rateDist::7          617952      0.44%     92.77% # Number of instructions fetched each cycle (Total)
system.switch_cpus1.fetch.rateDist::8        10054855      7.23%    100.00% # Number of instructions fetched each cycle (Total)
system.switch_cpus1.fetch.rateDist::overflows            0      0.00%    100.00% # Number of instructions fetched each cycle (Total)
system.switch_cpus1.fetch.rateDist::min_value            0                       # Number of instructions fetched each cycle (Total)
system.switch_cpus1.fetch.rateDist::max_value            8                       # Number of instructions fetched each cycle (Total)
system.switch_cpus1.fetch.rateDist::total    139113842                       # Number of instructions fetched each cycle (Total)
system.switch_cpus1.fetch.branchRate         0.148387                       # Number of branch fetches per cycle
system.switch_cpus1.fetch.rate               0.824749                       # Number of inst fetches per cycle
system.switch_cpus1.decode.IdleCycles       109202640                       # Number of cycles decode is idle
system.switch_cpus1.decode.BlockedCycles      2818611                       # Number of cycles decode is blocked
system.switch_cpus1.decode.RunCycles         23392505                       # Number of cycles decode is running
system.switch_cpus1.decode.UnblockCycles        23531                       # Number of cycles decode is unblocking
system.switch_cpus1.decode.SquashCycles       3676553                       # Number of cycles decode is squashing
system.switch_cpus1.decode.BranchResolved      2238053                       # Number of times decode resolved a branch
system.switch_cpus1.decode.BranchMispred         4850                       # Number of times decode detected a branch misprediction
system.switch_cpus1.decode.DecodedInsts     130875286                       # Number of instructions handled by decode
system.switch_cpus1.decode.SquashedInsts         1295                       # Number of squashed instructions handled by decode
system.switch_cpus1.rename.SquashCycles       3676553                       # Number of cycles rename is squashing
system.switch_cpus1.rename.IdleCycles       109639841                       # Number of cycles rename is idle
system.switch_cpus1.rename.BlockCycles        1312020                       # Number of cycles rename is blocking
system.switch_cpus1.rename.serializeStallCycles       730788                       # count of cycles rename stalled for serializing inst
system.switch_cpus1.rename.RunCycles         22967727                       # Number of cycles rename is running
system.switch_cpus1.rename.UnblockCycles       786911                       # Number of cycles rename is unblocking
system.switch_cpus1.rename.RenamedInsts     129938973                       # Number of instructions processed by rename
system.switch_cpus1.rename.ROBFullEvents            3                       # Number of times rename has blocked due to ROB full
system.switch_cpus1.rename.IQFullEvents         82871                       # Number of times rename has blocked due to IQ full
system.switch_cpus1.rename.LSQFullEvents       475004                       # Number of times rename has blocked due to LSQ full
system.switch_cpus1.rename.RenamedOperands    172545609                       # Number of destination operands rename has renamed
system.switch_cpus1.rename.RenameLookups    589529910                       # Number of register rename lookups that rename has made
system.switch_cpus1.rename.int_rename_lookups    589529910                       # Number of integer rename lookups
system.switch_cpus1.rename.CommittedMaps    139195980                       # Number of HB maps that are committed
system.switch_cpus1.rename.UndoneMaps        33349622                       # Number of HB maps that are undone due to squashing
system.switch_cpus1.rename.serializingInsts        18524                       # count of serializing insts renamed
system.switch_cpus1.rename.tempSerializingInsts         9268                       # count of temporary serializing insts renamed
system.switch_cpus1.rename.skidInsts          2493010                       # count of insts added to the skid buffer
system.switch_cpus1.memDep0.insertedLoads     21663544                       # Number of loads inserted to the mem dependence unit.
system.switch_cpus1.memDep0.insertedStores      4193705                       # Number of stores inserted to the mem dependence unit.
system.switch_cpus1.memDep0.conflictingLoads        75185                       # Number of conflicting loads.
system.switch_cpus1.memDep0.conflictingStores       932216                       # Number of conflicting stores.
system.switch_cpus1.iq.iqInstsAdded         128407814                       # Number of instructions added to the IQ (excludes non-spec)
system.switch_cpus1.iq.iqNonSpecInstsAdded        18524                       # Number of non-speculative instructions added to the IQ
system.switch_cpus1.iq.iqInstsIssued        120633857                       # Number of instructions issued
system.switch_cpus1.iq.iqSquashedInstsIssued        97929                       # Number of squashed instructions issued
system.switch_cpus1.iq.iqSquashedInstsExamined     21276136                       # Number of squashed instructions iterated over during squash; mainly for profiling
system.switch_cpus1.iq.iqSquashedOperandsExamined     45721760                       # Number of squashed operands that are examined and possibly removed from graph
system.switch_cpus1.iq.iqSquashedNonSpecRemoved           12                       # Number of squashed non-spec instructions that were removed
system.switch_cpus1.iq.issued_per_cycle::samples    139113842                       # Number of insts issued each cycle
system.switch_cpus1.iq.issued_per_cycle::mean     0.867159                       # Number of insts issued each cycle
system.switch_cpus1.iq.issued_per_cycle::stdev     1.478077                       # Number of insts issued each cycle
system.switch_cpus1.iq.issued_per_cycle::underflows            0      0.00%      0.00% # Number of insts issued each cycle
system.switch_cpus1.iq.issued_per_cycle::0     88904649     63.91%     63.91% # Number of insts issued each cycle
system.switch_cpus1.iq.issued_per_cycle::1     20448425     14.70%     78.61% # Number of insts issued each cycle
system.switch_cpus1.iq.issued_per_cycle::2     10261037      7.38%     85.98% # Number of insts issued each cycle
system.switch_cpus1.iq.issued_per_cycle::3      6736939      4.84%     90.83% # Number of insts issued each cycle
system.switch_cpus1.iq.issued_per_cycle::4      7023560      5.05%     95.87% # Number of insts issued each cycle
system.switch_cpus1.iq.issued_per_cycle::5      3633282      2.61%     98.49% # Number of insts issued each cycle
system.switch_cpus1.iq.issued_per_cycle::6      1626642      1.17%     99.66% # Number of insts issued each cycle
system.switch_cpus1.iq.issued_per_cycle::7       402425      0.29%     99.94% # Number of insts issued each cycle
system.switch_cpus1.iq.issued_per_cycle::8        76883      0.06%    100.00% # Number of insts issued each cycle
system.switch_cpus1.iq.issued_per_cycle::overflows            0      0.00%    100.00% # Number of insts issued each cycle
system.switch_cpus1.iq.issued_per_cycle::min_value            0                       # Number of insts issued each cycle
system.switch_cpus1.iq.issued_per_cycle::max_value            8                       # Number of insts issued each cycle
system.switch_cpus1.iq.issued_per_cycle::total    139113842                       # Number of insts issued each cycle
system.switch_cpus1.iq.fu_full::No_OpClass            0      0.00%      0.00% # attempts to use FU when none available
system.switch_cpus1.iq.fu_full::IntAlu         302094     59.96%     59.96% # attempts to use FU when none available
system.switch_cpus1.iq.fu_full::IntMult             0      0.00%     59.96% # attempts to use FU when none available
system.switch_cpus1.iq.fu_full::IntDiv              0      0.00%     59.96% # attempts to use FU when none available
system.switch_cpus1.iq.fu_full::FloatAdd            0      0.00%     59.96% # attempts to use FU when none available
system.switch_cpus1.iq.fu_full::FloatCmp            0      0.00%     59.96% # attempts to use FU when none available
system.switch_cpus1.iq.fu_full::FloatCvt            0      0.00%     59.96% # attempts to use FU when none available
system.switch_cpus1.iq.fu_full::FloatMult            0      0.00%     59.96% # attempts to use FU when none available
system.switch_cpus1.iq.fu_full::FloatDiv            0      0.00%     59.96% # attempts to use FU when none available
system.switch_cpus1.iq.fu_full::FloatSqrt            0      0.00%     59.96% # attempts to use FU when none available
system.switch_cpus1.iq.fu_full::SimdAdd             0      0.00%     59.96% # attempts to use FU when none available
system.switch_cpus1.iq.fu_full::SimdAddAcc            0      0.00%     59.96% # attempts to use FU when none available
system.switch_cpus1.iq.fu_full::SimdAlu             0      0.00%     59.96% # attempts to use FU when none available
system.switch_cpus1.iq.fu_full::SimdCmp             0      0.00%     59.96% # attempts to use FU when none available
system.switch_cpus1.iq.fu_full::SimdCvt             0      0.00%     59.96% # attempts to use FU when none available
system.switch_cpus1.iq.fu_full::SimdMisc            0      0.00%     59.96% # attempts to use FU when none available
system.switch_cpus1.iq.fu_full::SimdMult            0      0.00%     59.96% # attempts to use FU when none available
system.switch_cpus1.iq.fu_full::SimdMultAcc            0      0.00%     59.96% # attempts to use FU when none available
system.switch_cpus1.iq.fu_full::SimdShift            0      0.00%     59.96% # attempts to use FU when none available
system.switch_cpus1.iq.fu_full::SimdShiftAcc            0      0.00%     59.96% # attempts to use FU when none available
system.switch_cpus1.iq.fu_full::SimdSqrt            0      0.00%     59.96% # attempts to use FU when none available
system.switch_cpus1.iq.fu_full::SimdFloatAdd            0      0.00%     59.96% # attempts to use FU when none available
system.switch_cpus1.iq.fu_full::SimdFloatAlu            0      0.00%     59.96% # attempts to use FU when none available
system.switch_cpus1.iq.fu_full::SimdFloatCmp            0      0.00%     59.96% # attempts to use FU when none available
system.switch_cpus1.iq.fu_full::SimdFloatCvt            0      0.00%     59.96% # attempts to use FU when none available
system.switch_cpus1.iq.fu_full::SimdFloatDiv            0      0.00%     59.96% # attempts to use FU when none available
system.switch_cpus1.iq.fu_full::SimdFloatMisc            0      0.00%     59.96% # attempts to use FU when none available
system.switch_cpus1.iq.fu_full::SimdFloatMult            0      0.00%     59.96% # attempts to use FU when none available
system.switch_cpus1.iq.fu_full::SimdFloatMultAcc            0      0.00%     59.96% # attempts to use FU when none available
system.switch_cpus1.iq.fu_full::SimdFloatSqrt            0      0.00%     59.96% # attempts to use FU when none available
system.switch_cpus1.iq.fu_full::MemRead        126464     25.10%     85.06% # attempts to use FU when none available
system.switch_cpus1.iq.fu_full::MemWrite        75257     14.94%    100.00% # attempts to use FU when none available
system.switch_cpus1.iq.fu_full::IprAccess            0      0.00%    100.00% # attempts to use FU when none available
system.switch_cpus1.iq.fu_full::InstPrefetch            0      0.00%    100.00% # attempts to use FU when none available
system.switch_cpus1.iq.FU_type_0::No_OpClass            0      0.00%      0.00% # Type of FU issued
system.switch_cpus1.iq.FU_type_0::IntAlu     95209098     78.92%     78.92% # Type of FU issued
system.switch_cpus1.iq.FU_type_0::IntMult      1009038      0.84%     79.76% # Type of FU issued
system.switch_cpus1.iq.FU_type_0::IntDiv            0      0.00%     79.76% # Type of FU issued
system.switch_cpus1.iq.FU_type_0::FloatAdd            0      0.00%     79.76% # Type of FU issued
system.switch_cpus1.iq.FU_type_0::FloatCmp            0      0.00%     79.76% # Type of FU issued
system.switch_cpus1.iq.FU_type_0::FloatCvt            0      0.00%     79.76% # Type of FU issued
system.switch_cpus1.iq.FU_type_0::FloatMult            0      0.00%     79.76% # Type of FU issued
system.switch_cpus1.iq.FU_type_0::FloatDiv            0      0.00%     79.76% # Type of FU issued
system.switch_cpus1.iq.FU_type_0::FloatSqrt            0      0.00%     79.76% # Type of FU issued
system.switch_cpus1.iq.FU_type_0::SimdAdd            0      0.00%     79.76% # Type of FU issued
system.switch_cpus1.iq.FU_type_0::SimdAddAcc            0      0.00%     79.76% # Type of FU issued
system.switch_cpus1.iq.FU_type_0::SimdAlu            0      0.00%     79.76% # Type of FU issued
system.switch_cpus1.iq.FU_type_0::SimdCmp            0      0.00%     79.76% # Type of FU issued
system.switch_cpus1.iq.FU_type_0::SimdCvt            0      0.00%     79.76% # Type of FU issued
system.switch_cpus1.iq.FU_type_0::SimdMisc            0      0.00%     79.76% # Type of FU issued
system.switch_cpus1.iq.FU_type_0::SimdMult            0      0.00%     79.76% # Type of FU issued
system.switch_cpus1.iq.FU_type_0::SimdMultAcc            0      0.00%     79.76% # Type of FU issued
system.switch_cpus1.iq.FU_type_0::SimdShift            0      0.00%     79.76% # Type of FU issued
system.switch_cpus1.iq.FU_type_0::SimdShiftAcc            0      0.00%     79.76% # Type of FU issued
system.switch_cpus1.iq.FU_type_0::SimdSqrt            0      0.00%     79.76% # Type of FU issued
system.switch_cpus1.iq.FU_type_0::SimdFloatAdd            0      0.00%     79.76% # Type of FU issued
system.switch_cpus1.iq.FU_type_0::SimdFloatAlu            0      0.00%     79.76% # Type of FU issued
system.switch_cpus1.iq.FU_type_0::SimdFloatCmp            0      0.00%     79.76% # Type of FU issued
system.switch_cpus1.iq.FU_type_0::SimdFloatCvt            0      0.00%     79.76% # Type of FU issued
system.switch_cpus1.iq.FU_type_0::SimdFloatDiv            0      0.00%     79.76% # Type of FU issued
system.switch_cpus1.iq.FU_type_0::SimdFloatMisc         9256      0.01%     79.77% # Type of FU issued
system.switch_cpus1.iq.FU_type_0::SimdFloatMult            0      0.00%     79.77% # Type of FU issued
system.switch_cpus1.iq.FU_type_0::SimdFloatMultAcc            0      0.00%     79.77% # Type of FU issued
system.switch_cpus1.iq.FU_type_0::SimdFloatSqrt            0      0.00%     79.77% # Type of FU issued
system.switch_cpus1.iq.FU_type_0::MemRead     20243490     16.78%     96.55% # Type of FU issued
system.switch_cpus1.iq.FU_type_0::MemWrite      4162975      3.45%    100.00% # Type of FU issued
system.switch_cpus1.iq.FU_type_0::IprAccess            0      0.00%    100.00% # Type of FU issued
system.switch_cpus1.iq.FU_type_0::InstPrefetch            0      0.00%    100.00% # Type of FU issued
system.switch_cpus1.iq.FU_type_0::total     120633857                       # Type of FU issued
system.switch_cpus1.iq.rate                  0.857813                       # Inst issue rate
system.switch_cpus1.iq.fu_busy_cnt             503815                       # FU busy when requested
system.switch_cpus1.iq.fu_busy_rate          0.004176                       # FU busy rate (busy events/executed inst)
system.switch_cpus1.iq.int_inst_queue_reads    380983300                       # Number of integer instruction queue reads
system.switch_cpus1.iq.int_inst_queue_writes    149702762                       # Number of integer instruction queue writes
system.switch_cpus1.iq.int_inst_queue_wakeup_accesses    117905143                       # Number of integer instruction queue wakeup accesses
system.switch_cpus1.iq.fp_inst_queue_reads            0                       # Number of floating instruction queue reads
system.switch_cpus1.iq.fp_inst_queue_writes            0                       # Number of floating instruction queue writes
system.switch_cpus1.iq.fp_inst_queue_wakeup_accesses            0                       # Number of floating instruction queue wakeup accesses
system.switch_cpus1.iq.int_alu_accesses     121137672                       # Number of integer alu accesses
system.switch_cpus1.iq.fp_alu_accesses              0                       # Number of floating point alu accesses
system.switch_cpus1.iew.lsq.thread0.forwLoads       222477                       # Number of loads that had data forwarded from stores
system.switch_cpus1.iew.lsq.thread0.invAddrLoads            0                       # Number of loads ignored due to an invalid address
system.switch_cpus1.iew.lsq.thread0.squashedLoads      3924043                       # Number of loads squashed
system.switch_cpus1.iew.lsq.thread0.ignoredResponses           94                       # Number of memory responses ignored because the instruction is squashed
system.switch_cpus1.iew.lsq.thread0.memOrderViolation          288                       # Number of memory ordering violations
system.switch_cpus1.iew.lsq.thread0.squashedStores       128549                       # Number of stores squashed
system.switch_cpus1.iew.lsq.thread0.invAddrSwpfs            0                       # Number of software prefetches ignored due to an invalid address
system.switch_cpus1.iew.lsq.thread0.blockedLoads            0                       # Number of blocked loads due to partial load-store forwarding
system.switch_cpus1.iew.lsq.thread0.rescheduledLoads            0                       # Number of loads that were rescheduled
system.switch_cpus1.iew.lsq.thread0.cacheBlocked            0                       # Number of times an access to memory failed due to the cache being blocked
system.switch_cpus1.iew.iewIdleCycles               0                       # Number of cycles IEW is idle
system.switch_cpus1.iew.iewSquashCycles       3676553                       # Number of cycles IEW is squashing
system.switch_cpus1.iew.iewBlockCycles         856633                       # Number of cycles IEW is blocking
system.switch_cpus1.iew.iewUnblockCycles        48346                       # Number of cycles IEW is unblocking
system.switch_cpus1.iew.iewDispatchedInsts    128426338                       # Number of instructions dispatched to IQ
system.switch_cpus1.iew.iewDispSquashedInsts        46891                       # Number of squashed instructions skipped by dispatch
system.switch_cpus1.iew.iewDispLoadInsts     21663544                       # Number of dispatched load instructions
system.switch_cpus1.iew.iewDispStoreInsts      4193705                       # Number of dispatched store instructions
system.switch_cpus1.iew.iewDispNonSpecInsts         9268                       # Number of dispatched non-speculative instructions
system.switch_cpus1.iew.iewIQFullEvents         31758                       # Number of times the IQ has become full, causing a stall
system.switch_cpus1.iew.iewLSQFullEvents          165                       # Number of times the LSQ has become full, causing a stall
system.switch_cpus1.iew.memOrderViolationEvents          288                       # Number of memory order violations
system.switch_cpus1.iew.predictedTakenIncorrect       788280                       # Number of branches that were predicted taken incorrectly
system.switch_cpus1.iew.predictedNotTakenIncorrect       966821                       # Number of branches that were predicted not taken incorrectly
system.switch_cpus1.iew.branchMispredicts      1755101                       # Number of branch mispredicts detected at execute
system.switch_cpus1.iew.iewExecutedInsts    119336687                       # Number of executed instructions
system.switch_cpus1.iew.iewExecLoadInsts     19931183                       # Number of load instructions executed
system.switch_cpus1.iew.iewExecSquashedInsts      1297170                       # Number of squashed instructions skipped in execute
system.switch_cpus1.iew.exec_swp                    0                       # number of swp insts executed
system.switch_cpus1.iew.exec_nop                    0                       # number of nop insts executed
system.switch_cpus1.iew.exec_refs            24093971                       # number of memory reference insts executed
system.switch_cpus1.iew.exec_branches        18385288                       # Number of branches executed
system.switch_cpus1.iew.exec_stores           4162788                       # Number of stores executed
system.switch_cpus1.iew.exec_rate            0.848589                       # Inst execution rate
system.switch_cpus1.iew.wb_sent             118011356                       # cumulative count of insts sent to commit
system.switch_cpus1.iew.wb_count            117905143                       # cumulative count of insts written-back
system.switch_cpus1.iew.wb_producers         68105704                       # num instructions producing a value
system.switch_cpus1.iew.wb_consumers        161621108                       # num instructions consuming a value
system.switch_cpus1.iew.wb_penalized                0                       # number of instrctions required to write to 'other' IQ
system.switch_cpus1.iew.wb_rate              0.838410                       # insts written-back per cycle
system.switch_cpus1.iew.wb_fanout            0.421391                       # average fanout of values written-back
system.switch_cpus1.iew.wb_penalized_rate            0                       # fraction of instructions written-back that wrote to 'other' IQ
system.switch_cpus1.commit.commitCommittedInsts     93545383                       # The number of committed instructions
system.switch_cpus1.commit.commitCommittedOps    106243681                       # The number of committed instructions
system.switch_cpus1.commit.commitSquashedInsts     22183549                       # The number of squashed insts skipped by commit
system.switch_cpus1.commit.commitNonSpecStalls        18512                       # The number of times commit has been forced to stall to communicate backwards
system.switch_cpus1.commit.branchMispredicts      1632156                       # The number of times a branch was mispredicted
system.switch_cpus1.commit.committed_per_cycle::samples    135437289                       # Number of insts commited each cycle
system.switch_cpus1.commit.committed_per_cycle::mean     0.784449                       # Number of insts commited each cycle
system.switch_cpus1.commit.committed_per_cycle::stdev     1.660595                       # Number of insts commited each cycle
system.switch_cpus1.commit.committed_per_cycle::underflows            0      0.00%      0.00% # Number of insts commited each cycle
system.switch_cpus1.commit.committed_per_cycle::0     95983475     70.87%     70.87% # Number of insts commited each cycle
system.switch_cpus1.commit.committed_per_cycle::1     15308889     11.30%     82.17% # Number of insts commited each cycle
system.switch_cpus1.commit.committed_per_cycle::2     11068266      8.17%     90.34% # Number of insts commited each cycle
system.switch_cpus1.commit.committed_per_cycle::3      2471205      1.82%     92.17% # Number of insts commited each cycle
system.switch_cpus1.commit.committed_per_cycle::4      2815432      2.08%     94.25% # Number of insts commited each cycle
system.switch_cpus1.commit.committed_per_cycle::5       997682      0.74%     94.98% # Number of insts commited each cycle
system.switch_cpus1.commit.committed_per_cycle::6      4181604      3.09%     98.07% # Number of insts commited each cycle
system.switch_cpus1.commit.committed_per_cycle::7       841005      0.62%     98.69% # Number of insts commited each cycle
system.switch_cpus1.commit.committed_per_cycle::8      1769731      1.31%    100.00% # Number of insts commited each cycle
system.switch_cpus1.commit.committed_per_cycle::overflows            0      0.00%    100.00% # Number of insts commited each cycle
system.switch_cpus1.commit.committed_per_cycle::min_value            0                       # Number of insts commited each cycle
system.switch_cpus1.commit.committed_per_cycle::max_value            8                       # Number of insts commited each cycle
system.switch_cpus1.commit.committed_per_cycle::total    135437289                       # Number of insts commited each cycle
system.switch_cpus1.commit.committedInsts     93545383                       # Number of instructions committed
system.switch_cpus1.commit.committedOps     106243681                       # Number of ops (including micro ops) committed
system.switch_cpus1.commit.swp_count                0                       # Number of s/w prefetches committed
system.switch_cpus1.commit.refs              21804654                       # Number of memory references committed
system.switch_cpus1.commit.loads             17739498                       # Number of loads committed
system.switch_cpus1.commit.membars               9256                       # Number of memory barriers committed
[...]
system.cpu2.icache.overall_accesses::switch_cpus2.inst     11869809                       # number of overall (read+write) accesses
system.cpu2.icache.overall_accesses::total     11869809                       # number of overall (read+write) accesses
system.cpu2.icache.ReadReq_miss_rate::switch_cpus2.inst     0.000001                       # miss rate for ReadReq accesses
system.cpu2.icache.ReadReq_miss_rate::total     0.000001                       # miss rate for ReadReq accesses
system.cpu2.icache.demand_miss_rate::switch_cpus2.inst     0.000001                       # miss rate for demand accesses
system.cpu2.icache.demand_miss_rate::total     0.000001                       # miss rate for demand accesses
system.cpu2.icache.overall_miss_rate::switch_cpus2.inst     0.000001                       # miss rate for overall accesses
system.cpu2.icache.overall_miss_rate::total     0.000001                       # miss rate for overall accesses
system.cpu2.icache.ReadReq_avg_miss_latency::switch_cpus2.inst       193216                       # average ReadReq miss latency
system.cpu2.icache.ReadReq_avg_miss_latency::total       193216                       # average ReadReq miss latency
system.cpu2.icache.demand_avg_miss_latency::switch_cpus2.inst       193216                       # average overall miss latency
system.cpu2.icache.demand_avg_miss_latency::total       193216                       # average overall miss latency
system.cpu2.icache.overall_avg_miss_latency::switch_cpus2.inst       193216                       # average overall miss latency
system.cpu2.icache.overall_avg_miss_latency::total       193216                       # average overall miss latency
system.cpu2.icache.blocked_cycles::no_mshrs            0                       # number of cycles access was blocked
system.cpu2.icache.blocked_cycles::no_targets            0                       # number of cycles access was blocked
system.cpu2.icache.blocked::no_mshrs                0                       # number of cycles access was blocked
system.cpu2.icache.blocked::no_targets              0                       # number of cycles access was blocked
system.cpu2.icache.avg_blocked_cycles::no_mshrs          nan                       # average number of cycles each access was blocked
system.cpu2.icache.avg_blocked_cycles::no_targets          nan                       # average number of cycles each access was blocked
system.cpu2.icache.fast_writes                      0                       # number of fast writes performed
system.cpu2.icache.cache_copies                     0                       # number of cache copies performed
system.cpu2.icache.ReadReq_mshr_hits::switch_cpus2.inst            3                       # number of ReadReq MSHR hits
system.cpu2.icache.ReadReq_mshr_hits::total            3                       # number of ReadReq MSHR hits
system.cpu2.icache.demand_mshr_hits::switch_cpus2.inst            3                       # number of demand (read+write) MSHR hits
system.cpu2.icache.demand_mshr_hits::total            3                       # number of demand (read+write) MSHR hits
system.cpu2.icache.overall_mshr_hits::switch_cpus2.inst            3                       # number of overall MSHR hits
system.cpu2.icache.overall_mshr_hits::total            3                       # number of overall MSHR hits
system.cpu2.icache.ReadReq_mshr_misses::switch_cpus2.inst           10                       # number of ReadReq MSHR misses
system.cpu2.icache.ReadReq_mshr_misses::total           10                       # number of ReadReq MSHR misses
system.cpu2.icache.demand_mshr_misses::switch_cpus2.inst           10                       # number of demand (read+write) MSHR misses
system.cpu2.icache.demand_mshr_misses::total           10                       # number of demand (read+write) MSHR misses
system.cpu2.icache.overall_mshr_misses::switch_cpus2.inst           10                       # number of overall MSHR misses
system.cpu2.icache.overall_mshr_misses::total           10                       # number of overall MSHR misses
system.cpu2.icache.ReadReq_mshr_miss_latency::switch_cpus2.inst      2029230                       # number of ReadReq MSHR miss cycles
system.cpu2.icache.ReadReq_mshr_miss_latency::total      2029230                       # number of ReadReq MSHR miss cycles
system.cpu2.icache.demand_mshr_miss_latency::switch_cpus2.inst      2029230                       # number of demand (read+write) MSHR miss cycles
system.cpu2.icache.demand_mshr_miss_latency::total      2029230                       # number of demand (read+write) MSHR miss cycles
system.cpu2.icache.overall_mshr_miss_latency::switch_cpus2.inst      2029230                       # number of overall MSHR miss cycles
system.cpu2.icache.overall_mshr_miss_latency::total      2029230                       # number of overall MSHR miss cycles
system.cpu2.icache.ReadReq_mshr_miss_rate::switch_cpus2.inst     0.000001                       # mshr miss rate for ReadReq accesses
system.cpu2.icache.ReadReq_mshr_miss_rate::total     0.000001                       # mshr miss rate for ReadReq accesses
system.cpu2.icache.demand_mshr_miss_rate::switch_cpus2.inst     0.000001                       # mshr miss rate for demand accesses
system.cpu2.icache.demand_mshr_miss_rate::total     0.000001                       # mshr miss rate for demand accesses
system.cpu2.icache.overall_mshr_miss_rate::switch_cpus2.inst     0.000001                       # mshr miss rate for overall accesses
system.cpu2.icache.overall_mshr_miss_rate::total     0.000001                       # mshr miss rate for overall accesses
system.cpu2.icache.ReadReq_avg_mshr_miss_latency::switch_cpus2.inst       202923                       # average ReadReq mshr miss latency
system.cpu2.icache.ReadReq_avg_mshr_miss_latency::total       202923                       # average ReadReq mshr miss latency
system.cpu2.icache.demand_avg_mshr_miss_latency::switch_cpus2.inst       202923                       # average overall mshr miss latency
system.cpu2.icache.demand_avg_mshr_miss_latency::total       202923                       # average overall mshr miss latency
system.cpu2.icache.overall_avg_mshr_miss_latency::switch_cpus2.inst       202923                       # average overall mshr miss latency
system.cpu2.icache.overall_avg_mshr_miss_latency::total       202923                       # average overall mshr miss latency
system.cpu2.icache.no_allocate_misses               0                       # Number of misses that were no-allocate
system.cpu2.dcache.replacements                 96110                       # number of replacements
system.cpu2.dcache.tagsinuse                      256                       # Cycle average of tags in use
system.cpu2.dcache.total_refs               189904476                       # Total number of references to valid blocks.
system.cpu2.dcache.sampled_refs                 96366                       # Sample count of references to valid blocks.
system.cpu2.dcache.avg_refs               1970.658490                       # Average number of references to valid blocks.
system.cpu2.dcache.warmup_cycle                     0                       # Cycle when the warmup percentage was hit.
system.cpu2.dcache.occ_blocks::switch_cpus2.data   234.652614                       # Average occupied blocks per requestor
system.cpu2.dcache.occ_blocks::cpu2.data    21.347386                       # Average occupied blocks per requestor
system.cpu2.dcache.occ_percent::switch_cpus2.data     0.916612                       # Average percentage of cache occupancy
system.cpu2.dcache.occ_percent::cpu2.data     0.083388                       # Average percentage of cache occupancy
system.cpu2.dcache.occ_percent::total               1                       # Average percentage of cache occupancy
system.cpu2.dcache.ReadReq_hits::switch_cpus2.data     10777383                       # number of ReadReq hits
system.cpu2.dcache.ReadReq_hits::total       10777383                       # number of ReadReq hits
system.cpu2.dcache.WriteReq_hits::switch_cpus2.data      7607497                       # number of WriteReq hits
system.cpu2.dcache.WriteReq_hits::total       7607497                       # number of WriteReq hits
system.cpu2.dcache.LoadLockedReq_hits::switch_cpus2.data        16043                       # number of LoadLockedReq hits
system.cpu2.dcache.LoadLockedReq_hits::total        16043                       # number of LoadLockedReq hits
system.cpu2.dcache.StoreCondReq_hits::switch_cpus2.data        15762                       # number of StoreCondReq hits
system.cpu2.dcache.StoreCondReq_hits::total        15762                       # number of StoreCondReq hits
system.cpu2.dcache.demand_hits::switch_cpus2.data     18384880                       # number of demand (read+write) hits
system.cpu2.dcache.demand_hits::total        18384880                       # number of demand (read+write) hits
system.cpu2.dcache.overall_hits::switch_cpus2.data     18384880                       # number of overall hits
system.cpu2.dcache.overall_hits::total       18384880                       # number of overall hits
system.cpu2.dcache.ReadReq_misses::switch_cpus2.data       401321                       # number of ReadReq misses
system.cpu2.dcache.ReadReq_misses::total       401321                       # number of ReadReq misses
system.cpu2.dcache.WriteReq_misses::switch_cpus2.data           90                       # number of WriteReq misses
system.cpu2.dcache.WriteReq_misses::total           90                       # number of WriteReq misses
system.cpu2.dcache.demand_misses::switch_cpus2.data       401411                       # number of demand (read+write) misses
system.cpu2.dcache.demand_misses::total        401411                       # number of demand (read+write) misses
system.cpu2.dcache.overall_misses::switch_cpus2.data       401411                       # number of overall misses
system.cpu2.dcache.overall_misses::total       401411                       # number of overall misses
system.cpu2.dcache.ReadReq_miss_latency::switch_cpus2.data  38590610259                       # number of ReadReq miss cycles
system.cpu2.dcache.ReadReq_miss_latency::total  38590610259                       # number of ReadReq miss cycles
system.cpu2.dcache.WriteReq_miss_latency::switch_cpus2.data      8833477                       # number of WriteReq miss cycles
system.cpu2.dcache.WriteReq_miss_latency::total      8833477                       # number of WriteReq miss cycles
system.cpu2.dcache.demand_miss_latency::switch_cpus2.data  38599443736                       # number of demand (read+write) miss cycles
system.cpu2.dcache.demand_miss_latency::total  38599443736                       # number of demand (read+write) miss cycles
system.cpu2.dcache.overall_miss_latency::switch_cpus2.data  38599443736                       # number of overall miss cycles
system.cpu2.dcache.overall_miss_latency::total  38599443736                       # number of overall miss cycles
system.cpu2.dcache.ReadReq_accesses::switch_cpus2.data     11178704                       # number of ReadReq accesses(hits+misses)
system.cpu2.dcache.ReadReq_accesses::total     11178704                       # number of ReadReq accesses(hits+misses)
system.cpu2.dcache.WriteReq_accesses::switch_cpus2.data      7607587                       # number of WriteReq accesses(hits+misses)
system.cpu2.dcache.WriteReq_accesses::total      7607587                       # number of WriteReq accesses(hits+misses)
system.cpu2.dcache.LoadLockedReq_accesses::switch_cpus2.data        16043                       # number of LoadLockedReq accesses(hits+misses)
system.cpu2.dcache.LoadLockedReq_accesses::total        16043                       # number of LoadLockedReq accesses(hits+misses)
system.cpu2.dcache.StoreCondReq_accesses::switch_cpus2.data        15762                       # number of StoreCondReq accesses(hits+misses)
system.cpu2.dcache.StoreCondReq_accesses::total        15762                       # number of StoreCondReq accesses(hits+misses)
system.cpu2.dcache.demand_accesses::switch_cpus2.data     18786291                       # number of demand (read+write) accesses
system.cpu2.dcache.demand_accesses::total     18786291                       # number of demand (read+write) accesses
system.cpu2.dcache.overall_accesses::switch_cpus2.data     18786291                       # number of overall (read+write) accesses
system.cpu2.dcache.overall_accesses::total     18786291                       # number of overall (read+write) accesses
system.cpu2.dcache.ReadReq_miss_rate::switch_cpus2.data     0.035900                       # miss rate for ReadReq accesses
system.cpu2.dcache.ReadReq_miss_rate::total     0.035900                       # miss rate for ReadReq accesses
system.cpu2.dcache.WriteReq_miss_rate::switch_cpus2.data     0.000012                       # miss rate for WriteReq accesses
system.cpu2.dcache.WriteReq_miss_rate::total     0.000012                       # miss rate for WriteReq accesses
system.cpu2.dcache.demand_miss_rate::switch_cpus2.data     0.021367                       # miss rate for demand accesses
system.cpu2.dcache.demand_miss_rate::total     0.021367                       # miss rate for demand accesses
system.cpu2.dcache.overall_miss_rate::switch_cpus2.data     0.021367                       # miss rate for overall accesses
system.cpu2.dcache.overall_miss_rate::total     0.021367                       # miss rate for overall accesses
system.cpu2.dcache.ReadReq_avg_miss_latency::switch_cpus2.data 96158.960680                       # average ReadReq miss latency
system.cpu2.dcache.ReadReq_avg_miss_latency::total 96158.960680                       # average ReadReq miss latency
system.cpu2.dcache.WriteReq_avg_miss_latency::switch_cpus2.data 98149.744444                       # average WriteReq miss latency
system.cpu2.dcache.WriteReq_avg_miss_latency::total 98149.744444                       # average WriteReq miss latency
system.cpu2.dcache.demand_avg_miss_latency::switch_cpus2.data 96159.407032                       # average overall miss latency
system.cpu2.dcache.demand_avg_miss_latency::total 96159.407032                       # average overall miss latency
system.cpu2.dcache.overall_avg_miss_latency::switch_cpus2.data 96159.407032                       # average overall miss latency
system.cpu2.dcache.overall_avg_miss_latency::total 96159.407032                       # average overall miss latency
system.cpu2.dcache.blocked_cycles::no_mshrs            0                       # number of cycles access was blocked
system.cpu2.dcache.blocked_cycles::no_targets            0                       # number of cycles access was blocked
system.cpu2.dcache.blocked::no_mshrs                0                       # number of cycles access was blocked
system.cpu2.dcache.blocked::no_targets              0                       # number of cycles access was blocked
system.cpu2.dcache.avg_blocked_cycles::no_mshrs          nan                       # average number of cycles each access was blocked
system.cpu2.dcache.avg_blocked_cycles::no_targets          nan                       # average number of cycles each access was blocked
system.cpu2.dcache.fast_writes                      0                       # number of fast writes performed
system.cpu2.dcache.cache_copies                     0                       # number of cache copies performed
system.cpu2.dcache.writebacks::writebacks        17151                       # number of writebacks
system.cpu2.dcache.writebacks::total            17151                       # number of writebacks
system.cpu2.dcache.ReadReq_mshr_hits::switch_cpus2.data       305211                       # number of ReadReq MSHR hits
system.cpu2.dcache.ReadReq_mshr_hits::total       305211                       # number of ReadReq MSHR hits
system.cpu2.dcache.WriteReq_mshr_hits::switch_cpus2.data           90                       # number of WriteReq MSHR hits
system.cpu2.dcache.WriteReq_mshr_hits::total           90                       # number of WriteReq MSHR hits
system.cpu2.dcache.demand_mshr_hits::switch_cpus2.data       305301                       # number of demand (read+write) MSHR hits
system.cpu2.dcache.demand_mshr_hits::total       305301                       # number of demand (read+write) MSHR hits
system.cpu2.dcache.overall_mshr_hits::switch_cpus2.data       305301                       # number of overall MSHR hits
system.cpu2.dcache.overall_mshr_hits::total       305301                       # number of overall MSHR hits
system.cpu2.dcache.ReadReq_mshr_misses::switch_cpus2.data        96110                       # number of ReadReq MSHR misses
system.cpu2.dcache.ReadReq_mshr_misses::total        96110                       # number of ReadReq MSHR misses
system.cpu2.dcache.demand_mshr_misses::switch_cpus2.data        96110                       # number of demand (read+write) MSHR misses
system.cpu2.dcache.demand_mshr_misses::total        96110                       # number of demand (read+write) MSHR misses
system.cpu2.dcache.overall_mshr_misses::switch_cpus2.data        96110                       # number of overall MSHR misses
system.cpu2.dcache.overall_mshr_misses::total        96110                       # number of overall MSHR misses
system.cpu2.dcache.ReadReq_mshr_miss_latency::switch_cpus2.data   8472368862                       # number of ReadReq MSHR miss cycles
system.cpu2.dcache.ReadReq_mshr_miss_latency::total   8472368862                       # number of ReadReq MSHR miss cycles
system.cpu2.dcache.demand_mshr_miss_latency::switch_cpus2.data   8472368862                       # number of demand (read+write) MSHR miss cycles
system.cpu2.dcache.demand_mshr_miss_latency::total   8472368862                       # number of demand (read+write) MSHR miss cycles
system.cpu2.dcache.overall_mshr_miss_latency::switch_cpus2.data   8472368862                       # number of overall MSHR miss cycles
system.cpu2.dcache.overall_mshr_miss_latency::total   8472368862                       # number of overall MSHR miss cycles
system.cpu2.dcache.ReadReq_mshr_miss_rate::switch_cpus2.data     0.008598                       # mshr miss rate for ReadReq accesses
system.cpu2.dcache.ReadReq_mshr_miss_rate::total     0.008598                       # mshr miss rate for ReadReq accesses
system.cpu2.dcache.demand_mshr_miss_rate::switch_cpus2.data     0.005116                       # mshr miss rate for demand accesses
system.cpu2.dcache.demand_mshr_miss_rate::total     0.005116                       # mshr miss rate for demand accesses
system.cpu2.dcache.overall_mshr_miss_rate::switch_cpus2.data     0.005116                       # mshr miss rate for overall accesses
system.cpu2.dcache.overall_mshr_miss_rate::total     0.005116                       # mshr miss rate for overall accesses
system.cpu2.dcache.ReadReq_avg_mshr_miss_latency::switch_cpus2.data 88152.833857                       # average ReadReq mshr miss latency
system.cpu2.dcache.ReadReq_avg_mshr_miss_latency::total 88152.833857                       # average ReadReq mshr miss latency
system.cpu2.dcache.demand_avg_mshr_miss_latency::switch_cpus2.data 88152.833857                       # average overall mshr miss latency
system.cpu2.dcache.demand_avg_mshr_miss_latency::total 88152.833857                       # average overall mshr miss latency
system.cpu2.dcache.overall_avg_mshr_miss_latency::switch_cpus2.data 88152.833857                       # average overall mshr miss latency
system.cpu2.dcache.overall_avg_mshr_miss_latency::total 88152.833857                       # average overall mshr miss latency
system.cpu2.dcache.no_allocate_misses               0                       # Number of misses that were no-allocate

---------- End Simulation Statistics   ----------
