
---------- Begin Simulation Statistics ----------
sim_seconds                                  0.122630                       # Number of seconds simulated
sim_ticks                                122629900911                       # Number of ticks simulated
final_tick                               1177196428002                       # Number of ticks from beginning of simulation (restored from checkpoints and never reset)
sim_freq                                 1000000000000                       # Frequency of simulated ticks
host_inst_rate                                 150484                       # Simulator instruction rate (inst/s)
host_op_rate                                   189994                       # Simulator op (including micro ops) rate (op/s)
host_tick_rate                                5580399                       # Simulator tick rate (ticks/s)
host_mem_usage                               16908304                       # Number of bytes of host memory used
host_seconds                                 21975.11                       # Real time elapsed on the host
sim_insts                                  3306912692                       # Number of instructions simulated
sim_ops                                    4175138363                       # Number of ops (including micro ops) simulated
system.physmem.bytes_read::switch_cpus0.inst         1664                       # Number of bytes read from this memory
system.physmem.bytes_read::switch_cpus0.data      1133824                       # Number of bytes read from this memory
system.physmem.bytes_read::switch_cpus1.inst         2176                       # Number of bytes read from this memory
system.physmem.bytes_read::switch_cpus1.data       535040                       # Number of bytes read from this memory
system.physmem.bytes_read::switch_cpus2.inst         1280                       # Number of bytes read from this memory
system.physmem.bytes_read::switch_cpus2.data      2046592                       # Number of bytes read from this memory
system.physmem.bytes_read::total              3720576                       # Number of bytes read from this memory
system.physmem.bytes_inst_read::switch_cpus0.inst         1664                       # Number of instructions bytes read from this memory
system.physmem.bytes_inst_read::switch_cpus1.inst         2176                       # Number of instructions bytes read from this memory
system.physmem.bytes_inst_read::switch_cpus2.inst         1280                       # Number of instructions bytes read from this memory
system.physmem.bytes_inst_read::total            5120                       # Number of instructions bytes read from this memory
system.physmem.bytes_written::writebacks      1656704                       # Number of bytes written to this memory
system.physmem.bytes_written::total           1656704                       # Number of bytes written to this memory
system.physmem.num_reads::switch_cpus0.inst           13                       # Number of read requests responded to by this memory
system.physmem.num_reads::switch_cpus0.data         8858                       # Number of read requests responded to by this memory
system.physmem.num_reads::switch_cpus1.inst           17                       # Number of read requests responded to by this memory
system.physmem.num_reads::switch_cpus1.data         4180                       # Number of read requests responded to by this memory
system.physmem.num_reads::switch_cpus2.inst           10                       # Number of read requests responded to by this memory
system.physmem.num_reads::switch_cpus2.data        15989                       # Number of read requests responded to by this memory
system.physmem.num_reads::total                 29067                       # Number of read requests responded to by this memory
system.physmem.num_writes::writebacks           12943                       # Number of write requests responded to by this memory
system.physmem.num_writes::functional               0                       # Number of write requests responded to by this memory
system.physmem.num_writes::interrupt                0                       # Number of write requests responded to by this memory
system.physmem.num_writes::switch_cpus0.dtb.walker            0                       # Number of write requests responded to by this memory
system.physmem.num_writes::switch_cpus0.itb.walker            0                       # Number of write requests responded to by this memory
system.physmem.num_writes::switch_cpus0.inst            0                       # Number of write requests responded to by this memory
system.physmem.num_writes::switch_cpus0.data            0                       # Number of write requests responded to by this memory
system.physmem.num_writes::switch_cpus1.dtb.walker            0                       # Number of write requests responded to by this memory
system.physmem.num_writes::switch_cpus1.itb.walker            0                       # Number of write requests responded to by this memory
system.physmem.num_writes::switch_cpus1.inst            0                       # Number of write requests responded to by this memory
system.physmem.num_writes::switch_cpus1.data            0                       # Number of write requests responded to by this memory
system.physmem.num_writes::switch_cpus2.dtb.walker            0                       # Number of write requests responded to by this memory
system.physmem.num_writes::switch_cpus2.itb.walker            0                       # Number of write requests responded to by this memory
system.physmem.num_writes::switch_cpus2.inst            0                       # Number of write requests responded to by this memory
system.physmem.num_writes::switch_cpus2.data            0                       # Number of write requests responded to by this memory
system.physmem.num_writes::cpu0.dtb.walker            0                       # Number of write requests responded to by this memory
system.physmem.num_writes::cpu0.itb.walker            0                       # Number of write requests responded to by this memory
system.physmem.num_writes::cpu0.inst                0                       # Number of write requests responded to by this memory
system.physmem.num_writes::cpu0.data                0                       # Number of write requests responded to by this memory
system.physmem.num_writes::cpu1.dtb.walker            0                       # Number of write requests responded to by this memory
system.physmem.num_writes::cpu1.itb.walker            0                       # Number of write requests responded to by this memory
system.physmem.num_writes::cpu1.inst                0                       # Number of write requests responded to by this memory
system.physmem.num_writes::cpu1.data                0                       # Number of write requests responded to by this memory
system.physmem.num_writes::cpu2.dtb.walker            0                       # Number of write requests responded to by this memory
system.physmem.num_writes::cpu2.itb.walker            0                       # Number of write requests responded to by this memory
system.physmem.num_writes::cpu2.inst                0                       # Number of write requests responded to by this memory
system.physmem.num_writes::cpu2.data                0                       # Number of write requests responded to by this memory
system.physmem.num_writes::total                12943                       # Number of write requests responded to by this memory
system.physmem.bw_read::switch_cpus0.inst        13569                       # Total read bandwidth from this memory (bytes/s)
system.physmem.bw_read::switch_cpus0.data      9245902                       # Total read bandwidth from this memory (bytes/s)
system.physmem.bw_read::switch_cpus1.inst        17744                       # Total read bandwidth from this memory (bytes/s)
system.physmem.bw_read::switch_cpus1.data      4363047                       # Total read bandwidth from this memory (bytes/s)
system.physmem.bw_read::switch_cpus2.inst        10438                       # Total read bandwidth from this memory (bytes/s)
system.physmem.bw_read::switch_cpus2.data     16689176                       # Total read bandwidth from this memory (bytes/s)
system.physmem.bw_read::total                30339876                       # Total read bandwidth from this memory (bytes/s)
system.physmem.bw_inst_read::switch_cpus0.inst        13569                       # Instruction read bandwidth from this memory (bytes/s)
system.physmem.bw_inst_read::switch_cpus1.inst        17744                       # Instruction read bandwidth from this memory (bytes/s)
system.physmem.bw_inst_read::switch_cpus2.inst        10438                       # Instruction read bandwidth from this memory (bytes/s)
system.physmem.bw_inst_read::total              41752                       # Instruction read bandwidth from this memory (bytes/s)
system.physmem.bw_write::writebacks          13509788                       # Write bandwidth from this memory (bytes/s)
system.physmem.bw_write::total               13509788                       # Write bandwidth from this memory (bytes/s)
system.physmem.bw_total::writebacks          13509788                       # Total bandwidth to/from this memory (bytes/s)
system.physmem.bw_total::switch_cpus0.inst        13569                       # Total bandwidth to/from this memory (bytes/s)
system.physmem.bw_total::switch_cpus0.data      9245902                       # Total bandwidth to/from this memory (bytes/s)
system.physmem.bw_total::switch_cpus1.inst        17744                       # Total bandwidth to/from this memory (bytes/s)
system.physmem.bw_total::switch_cpus1.data      4363047                       # Total bandwidth to/from this memory (bytes/s)
system.physmem.bw_total::switch_cpus2.inst        10438                       # Total bandwidth to/from this memory (bytes/s)
system.physmem.bw_total::switch_cpus2.data     16689176                       # Total bandwidth to/from this memory (bytes/s)
system.physmem.bw_total::total               43849664                       # Total bandwidth to/from this memory (bytes/s)
system.switch_cpus0.dtb.inst_hits                   0                       # ITB inst hits
system.switch_cpus0.dtb.inst_misses                 0                       # ITB inst misses
system.switch_cpus0.dtb.read_hits                   0                       # DTB read hits
system.switch_cpus0.dtb.read_misses                 0                       # DTB read misses
system.switch_cpus0.dtb.write_hits                  0                       # DTB write hits
system.switch_cpus0.dtb.write_misses                0                       # DTB write misses
system.switch_cpus0.dtb.flush_tlb                   0                       # Number of times complete TLB was flushed
system.switch_cpus0.dtb.flush_tlb_mva               0                       # Number of times TLB was flushed by MVA
system.switch_cpus0.dtb.flush_tlb_mva_asid            0                       # Number of times TLB was flushed by MVA & ASID
system.switch_cpus0.dtb.flush_tlb_asid              0                       # Number of times TLB was flushed by ASID
system.switch_cpus0.dtb.flush_entries               0                       # Number of entries that have been flushed from TLB
system.switch_cpus0.dtb.align_faults                0                       # Number of TLB faults due to alignment restrictions
system.switch_cpus0.dtb.prefetch_faults             0                       # Number of TLB faults due to prefetch
system.switch_cpus0.dtb.domain_faults               0                       # Number of TLB faults due to domain restrictions
system.switch_cpus0.dtb.perms_faults                0                       # Number of TLB faults due to permissions restrictions
system.switch_cpus0.dtb.read_accesses               0                       # DTB read accesses
system.switch_cpus0.dtb.write_accesses              0                       # DTB write accesses
system.switch_cpus0.dtb.inst_accesses               0                       # ITB inst accesses
system.switch_cpus0.dtb.hits                        0                       # DTB hits
system.switch_cpus0.dtb.misses                      0                       # DTB misses
system.switch_cpus0.dtb.accesses                    0                       # DTB accesses
system.switch_cpus0.itb.inst_hits                   0                       # ITB inst hits
system.switch_cpus0.itb.inst_misses                 0                       # ITB inst misses
system.switch_cpus0.itb.read_hits                   0                       # DTB read hits
system.switch_cpus0.itb.read_misses                 0                       # DTB read misses
system.switch_cpus0.itb.write_hits                  0                       # DTB write hits
system.switch_cpus0.itb.write_misses                0                       # DTB write misses
system.switch_cpus0.itb.flush_tlb                   0                       # Number of times complete TLB was flushed
system.switch_cpus0.itb.flush_tlb_mva               0                       # Number of times TLB was flushed by MVA
system.switch_cpus0.itb.flush_tlb_mva_asid            0                       # Number of times TLB was flushed by MVA & ASID
system.switch_cpus0.itb.flush_tlb_asid              0                       # Number of times TLB was flushed by ASID
system.switch_cpus0.itb.flush_entries               0                       # Number of entries that have been flushed from TLB
system.switch_cpus0.itb.align_faults                0                       # Number of TLB faults due to alignment restrictions
system.switch_cpus0.itb.prefetch_faults             0                       # Number of TLB faults due to prefetch
system.switch_cpus0.itb.domain_faults               0                       # Number of TLB faults due to domain restrictions
system.switch_cpus0.itb.perms_faults                0                       # Number of TLB faults due to permissions restrictions
system.switch_cpus0.itb.read_accesses               0                       # DTB read accesses
system.switch_cpus0.itb.write_accesses              0                       # DTB write accesses
system.switch_cpus0.itb.inst_accesses               0                       # ITB inst accesses
system.switch_cpus0.itb.hits                        0                       # DTB hits
system.switch_cpus0.itb.misses                      0                       # DTB misses
system.switch_cpus0.itb.accesses                    0                       # DTB accesses
system.cpu0.workload.num_syscalls                   0                       # Number of system calls
system.switch_cpus0.numCycles               147214768                       # number of cpu cycles simulated
system.switch_cpus0.numWorkItemsStarted             0                       # number of work items this cpu started
system.switch_cpus0.numWorkItemsCompleted            0                       # number of work items this cpu completed
system.switch_cpus0.BPredUnit.lookups        22774759                       # Number of BP lookups
system.switch_cpus0.BPredUnit.condPredicted     18775799                       # Number of conditional branches predicted
system.switch_cpus0.BPredUnit.condIncorrect      2027092                       # Number of conditional branches incorrect
system.switch_cpus0.BPredUnit.BTBLookups      9178826                       # Number of BTB lookups
system.switch_cpus0.BPredUnit.BTBHits         8718750                       # Number of BTB hits
system.switch_cpus0.BPredUnit.BTBCorrect            0                       # Number of correct BTB predictions (this stat may not work properly.
system.switch_cpus0.BPredUnit.usedRAS         2385546                       # Number of times the RAS was used to get a target.
system.switch_cpus0.BPredUnit.RASInCorrect        89214                       # Number of incorrect RAS predictions.
system.switch_cpus0.fetch.icacheStallCycles    110824919                       # Number of cycles fetch is stalled on an Icache miss
system.switch_cpus0.fetch.Insts             125125573                       # Number of instructions fetch has processed
system.switch_cpus0.fetch.Branches           22774759                       # Number of branches that fetch encountered
system.switch_cpus0.fetch.predictedBranches     11104296                       # Number of branches that fetch has predicted taken
system.switch_cpus0.fetch.Cycles             26133087                       # Number of cycles fetch has run and was not squashing or blocked
system.switch_cpus0.fetch.SquashCycles        6020180                       # Number of cycles fetch has spent squashing
system.switch_cpus0.fetch.BlockedCycles       3469580                       # Number of cycles fetch has spent blocked
system.switch_cpus0.fetch.MiscStallCycles            1                       # Number of cycles fetch has spent waiting on interrupts, or bad addresses, or out of MSHRs
system.switch_cpus0.fetch.PendingTrapStallCycles           18                       # Number of stall cycles due to pending traps
system.switch_cpus0.fetch.CacheLines         12855569                       # Number of cache lines fetched
system.switch_cpus0.fetch.IcacheSquashes      1677486                       # Number of outstanding Icache misses that were squashed
system.switch_cpus0.fetch.rateDist::samples    144386842                       # Number of instructions fetched each cycle (Total)
system.switch_cpus0.fetch.rateDist::mean     1.063913                       # Number of instructions fetched each cycle (Total)
system.switch_cpus0.fetch.rateDist::stdev     2.484455                       # Number of instructions fetched each cycle (Total)
system.switch_cpus0.fetch.rateDist::underflows            0      0.00%      0.00% # Number of instructions fetched each cycle (Total)
system.switch_cpus0.fetch.rateDist::0       118253755     81.90%     81.90% # Number of instructions fetched each cycle (Total)
system.switch_cpus0.fetch.rateDist::1         1352371      0.94%     82.84% # Number of instructions fetched each cycle (Total)
system.switch_cpus0.fetch.rateDist::2         1921753      1.33%     84.17% # Number of instructions fetched each cycle (Total)
system.switch_cpus0.fetch.rateDist::3         2521113      1.75%     85.91% # Number of instructions fetched each cycle (Total)
system.switch_cpus0.fetch.rateDist::4         2828366      1.96%     87.87% # Number of instructions fetched each cycle (Total)
system.switch_cpus0.fetch.rateDist::5         2108319      1.46%     89.33% # Number of instructions fetched each cycle (Total)
system.switch_cpus0.fetch.rateDist::6         1213064      0.84%     90.17% # Number of instructions fetched each cycle (Total)
system.switch_cpus0.fetch.rateDist::7         1782469      1.23%     91.41% # Number of instructions fetched each cycle (Total)
system.switch_cpus0.fetch.rateDist::8        12405632      8.59%    100.00% # Number of instructions fetched each cycle (Total)
system.switch_cpus0.fetch.rateDist::overflows            0      0.00%    100.00% # Number of instructions fetched each cycle (Total)
system.switch_cpus0.fetch.rateDist::min_value            0                       # Number of instructions fetched each cycle (Total)
system.switch_cpus0.fetch.rateDist::max_value            8                       # Number of instructions fetched each cycle (Total)
system.switch_cpus0.fetch.rateDist::total    144386842                       # Number of instructions fetched each cycle (Total)
system.switch_cpus0.fetch.branchRate         0.154704                       # Number of branch fetches per cycle
system.switch_cpus0.fetch.rate               0.849953                       # Number of inst fetches per cycle
system.switch_cpus0.decode.IdleCycles       109598876                       # Number of cycles decode is idle
system.switch_cpus0.decode.BlockedCycles      5104632                       # Number of cycles decode is blocked
system.switch_cpus0.decode.RunCycles         25664390                       # Number of cycles decode is running
system.switch_cpus0.decode.UnblockCycles        59939                       # Number of cycles decode is unblocking
system.switch_cpus0.decode.SquashCycles       3958999                       # Number of cycles decode is squashing
system.switch_cpus0.decode.BranchResolved      3636829                       # Number of times decode resolved a branch
system.switch_cpus0.decode.BranchMispred          241                       # Number of times decode detected a branch misprediction
system.switch_cpus0.decode.DecodedInsts     150958241                       # Number of instructions handled by decode
system.switch_cpus0.decode.SquashedInsts         1355                       # Number of squashed instructions handled by decode
system.switch_cpus0.rename.SquashCycles       3958999                       # Number of cycles rename is squashing
system.switch_cpus0.rename.IdleCycles       110355488                       # Number of cycles rename is idle
system.switch_cpus0.rename.BlockCycles        1089014                       # Number of cycles rename is blocking
system.switch_cpus0.rename.serializeStallCycles      2650502                       # count of cycles rename stalled for serializing inst
system.switch_cpus0.rename.RunCycles         24970702                       # Number of cycles rename is running
system.switch_cpus0.rename.UnblockCycles      1362132                       # Number of cycles rename is unblocking
system.switch_cpus0.rename.RenamedInsts     149965623                       # Number of instructions processed by rename
system.switch_cpus0.rename.ROBFullEvents          983                       # Number of times rename has blocked due to ROB full
system.switch_cpus0.rename.IQFullEvents        273212                       # Number of times rename has blocked due to IQ full
system.switch_cpus0.rename.LSQFullEvents       564063                       # Number of times rename has blocked due to LSQ full
system.switch_cpus0.rename.FullRegisterEvents          765                       # Number of times there has been no free registers
system.switch_cpus0.rename.RenamedOperands    209132404                       # Number of destination operands rename has renamed
system.switch_cpus0.rename.RenameLookups    700590110                       # Number of register rename lookups that rename has made
system.switch_cpus0.rename.int_rename_lookups    700590110                       # Number of integer rename lookups
system.switch_cpus0.rename.CommittedMaps    170749012                       # Number of HB maps that are committed
system.switch_cpus0.rename.UndoneMaps        38383367                       # Number of HB maps that are undone due to squashing
system.switch_cpus0.rename.serializingInsts        39586                       # count of serializing insts renamed
system.switch_cpus0.rename.tempSerializingInsts        22916                       # count of temporary serializing insts renamed
system.switch_cpus0.rename.skidInsts          4119053                       # count of insts added to the skid buffer
system.switch_cpus0.memDep0.insertedLoads     14242160                       # Number of loads inserted to the mem dependence unit.
system.switch_cpus0.memDep0.insertedStores      7403132                       # Number of stores inserted to the mem dependence unit.
system.switch_cpus0.memDep0.conflictingLoads       122675                       # Number of conflicting loads.
system.switch_cpus0.memDep0.conflictingStores      1615469                       # Number of conflicting stores.
system.switch_cpus0.iq.iqInstsAdded         145789567                       # Number of instructions added to the IQ (excludes non-spec)
system.switch_cpus0.iq.iqNonSpecInstsAdded        39547                       # Number of non-speculative instructions added to the IQ
system.switch_cpus0.iq.iqInstsIssued        136359200                       # Number of instructions issued
system.switch_cpus0.iq.iqSquashedInstsIssued        26922                       # Number of squashed instructions issued
system.switch_cpus0.iq.iqSquashedInstsExamined     21100935                       # Number of squashed instructions iterated over during squash; mainly for profiling
system.switch_cpus0.iq.iqSquashedOperandsExamined     49872865                       # Number of squashed operands that are examined and possibly removed from graph
system.switch_cpus0.iq.iqSquashedNonSpecRemoved         6211                       # Number of squashed non-spec instructions that were removed
system.switch_cpus0.iq.issued_per_cycle::samples    144386842                       # Number of insts issued each cycle
system.switch_cpus0.iq.issued_per_cycle::mean     0.944402                       # Number of insts issued each cycle
system.switch_cpus0.iq.issued_per_cycle::stdev     1.505270                       # Number of insts issued each cycle
system.switch_cpus0.iq.issued_per_cycle::underflows            0      0.00%      0.00% # Number of insts issued each cycle
system.switch_cpus0.iq.issued_per_cycle::0     86705468     60.05%     60.05% # Number of insts issued each cycle
system.switch_cpus0.iq.issued_per_cycle::1     23220068     16.08%     76.13% # Number of insts issued each cycle
system.switch_cpus0.iq.issued_per_cycle::2     12861860      8.91%     85.04% # Number of insts issued each cycle
system.switch_cpus0.iq.issued_per_cycle::3      8306795      5.75%     90.79% # Number of insts issued each cycle
system.switch_cpus0.iq.issued_per_cycle::4      7629509      5.28%     96.08% # Number of insts issued each cycle
system.switch_cpus0.iq.issued_per_cycle::5      3038112      2.10%     98.18% # Number of insts issued each cycle
system.switch_cpus0.iq.issued_per_cycle::6      1843366      1.28%     99.46% # Number of insts issued each cycle
system.switch_cpus0.iq.issued_per_cycle::7       527077      0.37%     99.82% # Number of insts issued each cycle
system.switch_cpus0.iq.issued_per_cycle::8       254587      0.18%    100.00% # Number of insts issued each cycle
system.switch_cpus0.iq.issued_per_cycle::overflows            0      0.00%    100.00% # Number of insts issued each cycle
system.switch_cpus0.iq.issued_per_cycle::min_value            0                       # Number of insts issued each cycle
system.switch_cpus0.iq.issued_per_cycle::max_value            8                       # Number of insts issued each cycle
system.switch_cpus0.iq.issued_per_cycle::total    144386842                       # Number of insts issued each cycle
system.switch_cpus0.iq.fu_full::No_OpClass            0      0.00%      0.00% # attempts to use FU when none available
system.switch_cpus0.iq.fu_full::IntAlu          65495     22.71%     22.71% # attempts to use FU when none available
system.switch_cpus0.iq.fu_full::IntMult             0      0.00%     22.71% # attempts to use FU when none available
system.switch_cpus0.iq.fu_full::IntDiv              0      0.00%     22.71% # attempts to use FU when none available
system.switch_cpus0.iq.fu_full::FloatAdd            0      0.00%     22.71% # attempts to use FU when none available
system.switch_cpus0.iq.fu_full::FloatCmp            0      0.00%     22.71% # attempts to use FU when none available
system.switch_cpus0.iq.fu_full::FloatCvt            0      0.00%     22.71% # attempts to use FU when none available
system.switch_cpus0.iq.fu_full::FloatMult            0      0.00%     22.71% # attempts to use FU when none available
system.switch_cpus0.iq.fu_full::FloatDiv            0      0.00%     22.71% # attempts to use FU when none available
system.switch_cpus0.iq.fu_full::FloatSqrt            0      0.00%     22.71% # attempts to use FU when none available
system.switch_cpus0.iq.fu_full::SimdAdd             0      0.00%     22.71% # attempts to use FU when none available
system.switch_cpus0.iq.fu_full::SimdAddAcc            0      0.00%     22.71% # attempts to use FU when none available
system.switch_cpus0.iq.fu_full::SimdAlu             0      0.00%     22.71% # attempts to use FU when none available
system.switch_cpus0.iq.fu_full::SimdCmp             0      0.00%     22.71% # attempts to use FU when none available
system.switch_cpus0.iq.fu_full::SimdCvt             0      0.00%     22.71% # attempts to use FU when none available
system.switch_cpus0.iq.fu_full::SimdMisc            0      0.00%     22.71% # attempts to use FU when none available
system.switch_cpus0.iq.fu_full::SimdMult            0      0.00%     22.71% # attempts to use FU when none available
system.switch_cpus0.iq.fu_full::SimdMultAcc            0      0.00%     22.71% # attempts to use FU when none available
system.switch_cpus0.iq.fu_full::SimdShift            0      0.00%     22.71% # attempts to use FU when none available
system.switch_cpus0.iq.fu_full::SimdShiftAcc            0      0.00%     22.71% # attempts to use FU when none available
system.switch_cpus0.iq.fu_full::SimdSqrt            0      0.00%     22.71% # attempts to use FU when none available
system.switch_cpus0.iq.fu_full::SimdFloatAdd            0      0.00%     22.71% # attempts to use FU when none available
system.switch_cpus0.iq.fu_full::SimdFloatAlu            0      0.00%     22.71% # attempts to use FU when none available
system.switch_cpus0.iq.fu_full::SimdFloatCmp            0      0.00%     22.71% # attempts to use FU when none available
system.switch_cpus0.iq.fu_full::SimdFloatCvt            0      0.00%     22.71% # attempts to use FU when none available
system.switch_cpus0.iq.fu_full::SimdFloatDiv            0      0.00%     22.71% # attempts to use FU when none available
system.switch_cpus0.iq.fu_full::SimdFloatMisc            0      0.00%     22.71% # attempts to use FU when none available
system.switch_cpus0.iq.fu_full::SimdFloatMult            0      0.00%     22.71% # attempts to use FU when none available
system.switch_cpus0.iq.fu_full::SimdFloatMultAcc            0      0.00%     22.71% # attempts to use FU when none available
system.switch_cpus0.iq.fu_full::SimdFloatSqrt            0      0.00%     22.71% # attempts to use FU when none available
system.switch_cpus0.iq.fu_full::MemRead         96431     33.44%     56.15% # attempts to use FU when none available
system.switch_cpus0.iq.fu_full::MemWrite       126480     43.85%    100.00% # attempts to use FU when none available
system.switch_cpus0.iq.fu_full::IprAccess            0      0.00%    100.00% # attempts to use FU when none available
system.switch_cpus0.iq.fu_full::InstPrefetch            0      0.00%    100.00% # attempts to use FU when none available
system.switch_cpus0.iq.FU_type_0::No_OpClass            0      0.00%      0.00% # Type of FU issued
system.switch_cpus0.iq.FU_type_0::IntAlu    114483184     83.96%     83.96% # Type of FU issued
system.switch_cpus0.iq.FU_type_0::IntMult      2083921      1.53%     85.49% # Type of FU issued
system.switch_cpus0.iq.FU_type_0::IntDiv            0      0.00%     85.49% # Type of FU issued
system.switch_cpus0.iq.FU_type_0::FloatAdd            0      0.00%     85.49% # Type of FU issued
system.switch_cpus0.iq.FU_type_0::FloatCmp            0      0.00%     85.49% # Type of FU issued
system.switch_cpus0.iq.FU_type_0::FloatCvt            0      0.00%     85.49% # Type of FU issued
system.switch_cpus0.iq.FU_type_0::FloatMult            0      0.00%     85.49% # Type of FU issued
system.switch_cpus0.iq.FU_type_0::FloatDiv            0      0.00%     85.49% # Type of FU issued
system.switch_cpus0.iq.FU_type_0::FloatSqrt            0      0.00%     85.49% # Type of FU issued
system.switch_cpus0.iq.FU_type_0::SimdAdd            0      0.00%     85.49% # Type of FU issued
system.switch_cpus0.iq.FU_type_0::SimdAddAcc            0      0.00%     85.49% # Type of FU issued
system.switch_cpus0.iq.FU_type_0::SimdAlu            0      0.00%     85.49% # Type of FU issued
system.switch_cpus0.iq.FU_type_0::SimdCmp            0      0.00%     85.49% # Type of FU issued
system.switch_cpus0.iq.FU_type_0::SimdCvt            0      0.00%     85.49% # Type of FU issued
system.switch_cpus0.iq.FU_type_0::SimdMisc            0      0.00%     85.49% # Type of FU issued
system.switch_cpus0.iq.FU_type_0::SimdMult            0      0.00%     85.49% # Type of FU issued
system.switch_cpus0.iq.FU_type_0::SimdMultAcc            0      0.00%     85.49% # Type of FU issued
system.switch_cpus0.iq.FU_type_0::SimdShift            0      0.00%     85.49% # Type of FU issued
system.switch_cpus0.iq.FU_type_0::SimdShiftAcc            0      0.00%     85.49% # Type of FU issued
system.switch_cpus0.iq.FU_type_0::SimdSqrt            0      0.00%     85.49% # Type of FU issued
system.switch_cpus0.iq.FU_type_0::SimdFloatAdd            0      0.00%     85.49% # Type of FU issued
system.switch_cpus0.iq.FU_type_0::SimdFloatAlu            0      0.00%     85.49% # Type of FU issued
system.switch_cpus0.iq.FU_type_0::SimdFloatCmp            0      0.00%     85.49% # Type of FU issued
system.switch_cpus0.iq.FU_type_0::SimdFloatCvt            0      0.00%     85.49% # Type of FU issued
system.switch_cpus0.iq.FU_type_0::SimdFloatDiv            0      0.00%     85.49% # Type of FU issued
system.switch_cpus0.iq.FU_type_0::SimdFloatMisc        16669      0.01%     85.50% # Type of FU issued
system.switch_cpus0.iq.FU_type_0::SimdFloatMult            0      0.00%     85.50% # Type of FU issued
system.switch_cpus0.iq.FU_type_0::SimdFloatMultAcc            0      0.00%     85.50% # Type of FU issued
system.switch_cpus0.iq.FU_type_0::SimdFloatSqrt            0      0.00%     85.50% # Type of FU issued
system.switch_cpus0.iq.FU_type_0::MemRead     12429176      9.12%     94.61% # Type of FU issued
system.switch_cpus0.iq.FU_type_0::MemWrite      7346250      5.39%    100.00% # Type of FU issued
system.switch_cpus0.iq.FU_type_0::IprAccess            0      0.00%    100.00% # Type of FU issued
system.switch_cpus0.iq.FU_type_0::InstPrefetch            0      0.00%    100.00% # Type of FU issued
system.switch_cpus0.iq.FU_type_0::total     136359200                       # Type of FU issued
system.switch_cpus0.iq.rate                  0.926260                       # Inst issue rate
system.switch_cpus0.iq.fu_busy_cnt             288406                       # FU busy when requested
system.switch_cpus0.iq.fu_busy_rate          0.002115                       # FU busy rate (busy events/executed inst)
system.switch_cpus0.iq.int_inst_queue_reads    417420567                       # Number of integer instruction queue reads
system.switch_cpus0.iq.int_inst_queue_writes    166930387                       # Number of integer instruction queue writes
system.switch_cpus0.iq.int_inst_queue_wakeup_accesses    133766910                       # Number of integer instruction queue wakeup accesses
system.switch_cpus0.iq.fp_inst_queue_reads            0                       # Number of floating instruction queue reads
system.switch_cpus0.iq.fp_inst_queue_writes            0                       # Number of floating instruction queue writes
system.switch_cpus0.iq.fp_inst_queue_wakeup_accesses            0                       # Number of floating instruction queue wakeup accesses
system.switch_cpus0.iq.int_alu_accesses     136647606                       # Number of integer alu accesses
system.switch_cpus0.iq.fp_alu_accesses              0                       # Number of floating point alu accesses
system.switch_cpus0.iew.lsq.thread0.forwLoads       334243                       # Number of loads that had data forwarded from stores
system.switch_cpus0.iew.lsq.thread0.invAddrLoads            0                       # Number of loads ignored due to an invalid address
system.switch_cpus0.iew.lsq.thread0.squashedLoads      2974232                       # Number of loads squashed
system.switch_cpus0.iew.lsq.thread0.ignoredResponses          115                       # Number of memory responses ignored because the instruction is squashed
system.switch_cpus0.iew.lsq.thread0.memOrderViolation          338                       # Number of memory ordering violations
system.switch_cpus0.iew.lsq.thread0.squashedStores       180688                       # Number of stores squashed
system.switch_cpus0.iew.lsq.thread0.invAddrSwpfs            0                       # Number of software prefetches ignored due to an invalid address
system.switch_cpus0.iew.lsq.thread0.blockedLoads            0                       # Number of blocked loads due to partial load-store forwarding
system.switch_cpus0.iew.lsq.thread0.rescheduledLoads            0                       # Number of loads that were rescheduled
system.switch_cpus0.iew.lsq.thread0.cacheBlocked           81                       # Number of times an access to memory failed due to the cache being blocked
system.switch_cpus0.iew.iewIdleCycles               0                       # Number of cycles IEW is idle
system.switch_cpus0.iew.iewSquashCycles       3958999                       # Number of cycles IEW is squashing
system.switch_cpus0.iew.iewBlockCycles         822726                       # Number of cycles IEW is blocking
system.switch_cpus0.iew.iewUnblockCycles       111454                       # Number of cycles IEW is unblocking
system.switch_cpus0.iew.iewDispatchedInsts    145829115                       # Number of instructions dispatched to IQ
system.switch_cpus0.iew.iewDispSquashedInsts      1341910                       # Number of squashed instructions skipped by dispatch
system.switch_cpus0.iew.iewDispLoadInsts     14242160                       # Number of dispatched load instructions
system.switch_cpus0.iew.iewDispStoreInsts      7403132                       # Number of dispatched store instructions
system.switch_cpus0.iew.iewDispNonSpecInsts        22879                       # Number of dispatched non-speculative instructions
system.switch_cpus0.iew.iewIQFullEvents         84928                       # Number of times the IQ has become full, causing a stall
system.switch_cpus0.iew.iewLSQFullEvents            0                       # Number of times the LSQ has become full, causing a stall
system.switch_cpus0.iew.memOrderViolationEvents          338                       # Number of memory order violations
system.switch_cpus0.iew.predictedTakenIncorrect      1188542                       # Number of branches that were predicted taken incorrectly
system.switch_cpus0.iew.predictedNotTakenIncorrect      1149748                       # Number of branches that were predicted not taken incorrectly
system.switch_cpus0.iew.branchMispredicts      2338290                       # Number of branch mispredicts detected at execute
system.switch_cpus0.iew.iewExecutedInsts    134526181                       # Number of executed instructions
system.switch_cpus0.iew.iewExecLoadInsts     12259800                       # Number of load instructions executed
system.switch_cpus0.iew.iewExecSquashedInsts      1833016                       # Number of squashed instructions skipped in execute
system.switch_cpus0.iew.exec_swp                    0                       # number of swp insts executed
system.switch_cpus0.iew.exec_nop                    1                       # number of nop insts executed
system.switch_cpus0.iew.exec_refs            19604656                       # number of memory reference insts executed
system.switch_cpus0.iew.exec_branches        18846368                       # Number of branches executed
system.switch_cpus0.iew.exec_stores           7344856                       # Number of stores executed
system.switch_cpus0.iew.exec_rate            0.913809                       # Inst execution rate
system.switch_cpus0.iew.wb_sent             133767171                       # cumulative count of insts sent to commit
system.switch_cpus0.iew.wb_count            133766910                       # cumulative count of insts written-back
system.switch_cpus0.iew.wb_producers         78357529                       # num instructions producing a value
system.switch_cpus0.iew.wb_consumers        212887665                       # num instructions consuming a value
system.switch_cpus0.iew.wb_penalized                0                       # number of instrctions required to write to 'other' IQ
system.switch_cpus0.iew.wb_rate              0.908651                       # insts written-back per cycle
system.switch_cpus0.iew.wb_fanout            0.368070                       # average fanout of values written-back
system.switch_cpus0.iew.wb_penalized_rate            0                       # fraction of instructions written-back that wrote to 'other' IQ
system.switch_cpus0.commit.commitCommittedInsts    100000000                       # The number of committed instructions
system.switch_cpus0.commit.commitCommittedOps    122904423                       # The number of committed instructions
system.switch_cpus0.commit.commitSquashedInsts     22933383                       # The number of squashed insts skipped by commit
system.switch_cpus0.commit.commitNonSpecStalls        33336                       # The number of times commit has been forced to stall to communicate backwards
system.switch_cpus0.commit.branchMispredicts      2060352                       # The number of times a branch was mispredicted
system.switch_cpus0.commit.committed_per_cycle::samples    140427843                       # Number of insts commited each cycle
system.switch_cpus0.commit.committed_per_cycle::mean     0.875214                       # Number of insts commited each cycle
system.switch_cpus0.commit.committed_per_cycle::stdev     1.682706                       # Number of insts commited each cycle
system.switch_cpus0.commit.committed_per_cycle::underflows            0      0.00%      0.00% # Number of insts commited each cycle
system.switch_cpus0.commit.committed_per_cycle::0     90611483     64.53%     64.53% # Number of insts commited each cycle
system.switch_cpus0.commit.committed_per_cycle::1     23951997     17.06%     81.58% # Number of insts commited each cycle
system.switch_cpus0.commit.committed_per_cycle::2      9405074      6.70%     88.28% # Number of insts commited each cycle
system.switch_cpus0.commit.committed_per_cycle::3      4841549      3.45%     91.73% # Number of insts commited each cycle
system.switch_cpus0.commit.committed_per_cycle::4      4223849      3.01%     94.73% # Number of insts commited each cycle
system.switch_cpus0.commit.committed_per_cycle::5      2028168      1.44%     96.18% # Number of insts commited each cycle
system.switch_cpus0.commit.committed_per_cycle::6      1758322      1.25%     97.43% # Number of insts commited each cycle
system.switch_cpus0.commit.committed_per_cycle::7       827745      0.59%     98.02% # Number of insts commited each cycle
system.switch_cpus0.commit.committed_per_cycle::8      2779656      1.98%    100.00% # Number of insts commited each cycle
system.switch_cpus0.commit.committed_per_cycle::overflows            0      0.00%    100.00% # Number of insts commited each cycle
system.switch_cpus0.commit.committed_per_cycle::min_value            0                       # Number of insts commited each cycle
system.switch_cpus0.commit.committed_per_cycle::max_value            8                       # Number of insts commited each cycle
system.switch_cpus0.commit.committed_per_cycle::total    140427843                       # Number of insts commited each cycle
system.switch_cpus0.commit.committedInsts    100000000                       # Number of instructions committed
system.switch_cpus0.commit.committedOps     122904423                       # Number of ops (including micro ops) committed
system.switch_cpus0.commit.swp_count                0                       # Number of s/w prefetches committed
system.switch_cpus0.commit.refs              18490372                       # Number of memory references committed
system.switch_cpus0.commit.loads             11267928                       # Number of loads committed
system.switch_cpus0.commit.membars              16668                       # Number of memory barriers committed
system.switch_cpus0.commit.branches          17627285                       # Number of branches committed
system.switch_cpus0.commit.fp_insts                 0                       # Number of committed floating point instructions.
system.switch_cpus0.commit.int_insts        110781810                       # Number of committed integer instructions.
system.switch_cpus0.commit.function_calls      2507803                       # Number of function calls committed.
system.switch_cpus0.commit.bw_lim_events      2779656                       # number cycles where commit BW limit reached
system.switch_cpus0.commit.bw_limited               0                       # number of insts not committed due to BW limits
system.switch_cpus0.rob.rob_reads           283485993                       # The number of ROB reads
system.switch_cpus0.rob.rob_writes          295634685                       # The number of ROB writes
system.switch_cpus0.timesIdled                  47006                       # Number of times that the entire CPU went into an idle state and unscheduled itself
system.switch_cpus0.idleCycles                2827926                       # Total number of cycles that the CPU has spent unscheduled due to idling
system.switch_cpus0.committedInsts          100000000                       # Number of Instructions Simulated
system.switch_cpus0.committedOps            122904423                       # Number of Ops (including micro ops) Simulated
system.switch_cpus0.committedInsts_total    100000000                       # Number of Instructions Simulated
system.switch_cpus0.cpi                      1.472148                       # CPI: Cycles Per Instruction
system.switch_cpus0.cpi_total                1.472148                       # CPI: Total CPI of All Threads
system.switch_cpus0.ipc                      0.679280                       # IPC: Instructions Per Cycle
system.switch_cpus0.ipc_total                0.679280                       # IPC: Total IPC of All Threads
system.switch_cpus0.int_regfile_reads       606164517                       # number of integer regfile reads
system.switch_cpus0.int_regfile_writes      185593143                       # number of integer regfile writes
system.switch_cpus0.misc_regfile_reads      141425227                       # number of misc regfile reads
system.switch_cpus0.misc_regfile_writes         33336                       # number of misc regfile writes
system.switch_cpus1.dtb.inst_hits                   0                       # ITB inst hits
system.switch_cpus1.dtb.inst_misses                 0                       # ITB inst misses
system.switch_cpus1.dtb.read_hits                   0                       # DTB read hits
system.switch_cpus1.dtb.read_misses                 0                       # DTB read misses
system.switch_cpus1.dtb.write_hits                  0                       # DTB write hits
system.switch_cpus1.dtb.write_misses                0                       # DTB write misses
system.switch_cpus1.dtb.flush_tlb                   0                       # Number of times complete TLB was flushed
system.switch_cpus1.dtb.flush_tlb_mva               0                       # Number of times TLB was flushed by MVA
system.switch_cpus1.dtb.flush_tlb_mva_asid            0                       # Number of times TLB was flushed by MVA & ASID
system.switch_cpus1.dtb.flush_tlb_asid              0                       # Number of times TLB was flushed by ASID
system.switch_cpus1.dtb.flush_entries               0                       # Number of entries that have been flushed from TLB
system.switch_cpus1.dtb.align_faults                0                       # Number of TLB faults due to alignment restrictions
system.switch_cpus1.dtb.prefetch_faults             0                       # Number of TLB faults due to prefetch
system.switch_cpus1.dtb.domain_faults               0                       # Number of TLB faults due to domain restrictions
system.switch_cpus1.dtb.perms_faults                0                       # Number of TLB faults due to permissions restrictions
system.switch_cpus1.dtb.read_accesses               0                       # DTB read accesses
system.switch_cpus1.dtb.write_accesses              0                       # DTB write accesses
system.switch_cpus1.dtb.inst_accesses               0                       # ITB inst accesses
system.switch_cpus1.dtb.hits                        0                       # DTB hits
system.switch_cpus1.dtb.misses                      0                       # DTB misses
system.switch_cpus1.dtb.accesses                    0                       # DTB accesses
system.switch_cpus1.itb.inst_hits                   0                       # ITB inst hits
system.switch_cpus1.itb.inst_misses                 0                       # ITB inst misses
system.switch_cpus1.itb.read_hits                   0                       # DTB read hits
system.switch_cpus1.itb.read_misses                 0                       # DTB read misses
system.switch_cpus1.itb.write_hits                  0                       # DTB write hits
system.switch_cpus1.itb.write_misses                0                       # DTB write misses
system.switch_cpus1.itb.flush_tlb                   0                       # Number of times complete TLB was flushed
system.switch_cpus1.itb.flush_tlb_mva               0                       # Number of times TLB was flushed by MVA
system.switch_cpus1.itb.flush_tlb_mva_asid            0                       # Number of times TLB was flushed by MVA & ASID
system.switch_cpus1.itb.flush_tlb_asid              0                       # Number of times TLB was flushed by ASID
system.switch_cpus1.itb.flush_entries               0                       # Number of entries that have been flushed from TLB
system.switch_cpus1.itb.align_faults                0                       # Number of TLB faults due to alignment restrictions
system.switch_cpus1.itb.prefetch_faults             0                       # Number of TLB faults due to prefetch
system.switch_cpus1.itb.domain_faults               0                       # Number of TLB faults due to domain restrictions
system.switch_cpus1.itb.perms_faults                0                       # Number of TLB faults due to permissions restrictions
system.switch_cpus1.itb.read_accesses               0                       # DTB read accesses
system.switch_cpus1.itb.write_accesses              0                       # DTB write accesses
system.switch_cpus1.itb.inst_accesses               0                       # ITB inst accesses
system.switch_cpus1.itb.hits                        0                       # DTB hits
system.switch_cpus1.itb.misses                      0                       # DTB misses
system.switch_cpus1.itb.accesses                    0                       # DTB accesses
system.cpu1.workload.num_syscalls                   0                       # Number of system calls
system.switch_cpus1.numCycles               147214768                       # number of cpu cycles simulated
system.switch_cpus1.numWorkItemsStarted             0                       # number of work items this cpu started
system.switch_cpus1.numWorkItemsCompleted            0                       # number of work items this cpu completed
system.switch_cpus1.BPredUnit.lookups        24759315                       # Number of BP lookups
system.switch_cpus1.BPredUnit.condPredicted     20281097                       # Number of conditional branches predicted
system.switch_cpus1.BPredUnit.condIncorrect      2095362                       # Number of conditional branches incorrect
system.switch_cpus1.BPredUnit.BTBLookups     10204433                       # Number of BTB lookups
system.switch_cpus1.BPredUnit.BTBHits         9806361                       # Number of BTB hits
system.switch_cpus1.BPredUnit.BTBCorrect            0                       # Number of correct BTB predictions (this stat may not work properly.
system.switch_cpus1.BPredUnit.usedRAS         2535116                       # Number of times the RAS was used to get a target.
system.switch_cpus1.BPredUnit.RASInCorrect        96860                       # Number of incorrect RAS predictions.
system.switch_cpus1.fetch.icacheStallCycles    109900583                       # Number of cycles fetch is stalled on an Icache miss
system.switch_cpus1.fetch.Insts             132886964                       # Number of instructions fetch has processed
system.switch_cpus1.fetch.Branches           24759315                       # Number of branches that fetch encountered
system.switch_cpus1.fetch.predictedBranches     12341477                       # Number of branches that fetch has predicted taken
system.switch_cpus1.fetch.Cycles             28795755                       # Number of cycles fetch has run and was not squashing or blocked
system.switch_cpus1.fetch.SquashCycles        6257012                       # Number of cycles fetch has spent squashing
system.switch_cpus1.fetch.BlockedCycles       3845708                       # Number of cycles fetch has spent blocked
system.switch_cpus1.fetch.CacheLines         12855460                       # Number of cache lines fetched
system.switch_cpus1.fetch.IcacheSquashes      1636678                       # Number of outstanding Icache misses that were squashed
system.switch_cpus1.fetch.rateDist::samples    146685596                       # Number of instructions fetched each cycle (Total)
system.switch_cpus1.fetch.rateDist::mean     1.108224                       # Number of instructions fetched each cycle (Total)
system.switch_cpus1.fetch.rateDist::stdev     2.532438                       # Number of instructions fetched each cycle (Total)
system.switch_cpus1.fetch.rateDist::underflows            0      0.00%      0.00% # Number of instructions fetched each cycle (Total)
system.switch_cpus1.fetch.rateDist::0       117889841     80.37%     80.37% # Number of instructions fetched each cycle (Total)
system.switch_cpus1.fetch.rateDist::1         2312322      1.58%     81.95% # Number of instructions fetched each cycle (Total)
system.switch_cpus1.fetch.rateDist::2         3963251      2.70%     84.65% # Number of instructions fetched each cycle (Total)
system.switch_cpus1.fetch.rateDist::3         2294916      1.56%     86.21% # Number of instructions fetched each cycle (Total)
system.switch_cpus1.fetch.rateDist::4         1802837      1.23%     87.44% # Number of instructions fetched each cycle (Total)
system.switch_cpus1.fetch.rateDist::5         1592197      1.09%     88.53% # Number of instructions fetched each cycle (Total)
system.switch_cpus1.fetch.rateDist::6          969167      0.66%     89.19% # Number of instructions fetched each cycle (Total)
system.switch_cpus1.fetch.rateDist::7         2438987      1.66%     90.85% # Number of instructions fetched each cycle (Total)
system.switch_cpus1.fetch.rateDist::8        13422078      9.15%    100.00% # Number of instructions fetched each cycle (Total)
system.switch_cpus1.fetch.rateDist::overflows            0      0.00%    100.00% # Number of instructions fetched each cycle (Total)
system.switch_cpus1.fetch.rateDist::min_value            0                       # Number of instructions fetched each cycle (Total)
system.switch_cpus1.fetch.rateDist::max_value            8                       # Number of instructions fetched each cycle (Total)
system.switch_cpus1.fetch.rateDist::total    146685596                       # Number of instructions fetched each cycle (Total)
system.switch_cpus1.fetch.branchRate         0.168185                       # Number of branch fetches per cycle
system.switch_cpus1.fetch.rate               0.902674                       # Number of inst fetches per cycle
system.switch_cpus1.decode.IdleCycles       109231365                       # Number of cycles decode is idle
system.switch_cpus1.decode.BlockedCycles      5047732                       # Number of cycles decode is blocked
system.switch_cpus1.decode.RunCycles         28189152                       # Number of cycles decode is running
system.switch_cpus1.decode.UnblockCycles        74074                       # Number of cycles decode is unblocking
system.switch_cpus1.decode.SquashCycles       4143271                       # Number of cycles decode is squashing
system.switch_cpus1.decode.BranchResolved      4061729                       # Number of times decode resolved a branch
system.switch_cpus1.decode.BranchMispred          279                       # Number of times decode detected a branch misprediction
system.switch_cpus1.decode.DecodedInsts     160139205                       # Number of instructions handled by decode
system.switch_cpus1.decode.SquashedInsts         1619                       # Number of squashed instructions handled by decode
system.switch_cpus1.rename.SquashCycles       4143271                       # Number of cycles rename is squashing
system.switch_cpus1.rename.IdleCycles       109768360                       # Number of cycles rename is idle
system.switch_cpus1.rename.BlockCycles         626010                       # Number of cycles rename is blocking
system.switch_cpus1.rename.serializeStallCycles      3505445                       # count of cycles rename stalled for serializing inst
system.switch_cpus1.rename.RunCycles         27708321                       # Number of cycles rename is running
system.switch_cpus1.rename.UnblockCycles       934185                       # Number of cycles rename is unblocking
system.switch_cpus1.rename.RenamedInsts     159066514                       # Number of instructions processed by rename
system.switch_cpus1.rename.IQFullEvents         97355                       # Number of times rename has blocked due to IQ full
system.switch_cpus1.rename.LSQFullEvents       541504                       # Number of times rename has blocked due to LSQ full
system.switch_cpus1.rename.RenamedOperands    224571428                       # Number of destination operands rename has renamed
system.switch_cpus1.rename.RenameLookups    740058069                       # Number of register rename lookups that rename has made
system.switch_cpus1.rename.int_rename_lookups    740058069                       # Number of integer rename lookups
system.switch_cpus1.rename.CommittedMaps    180095512                       # Number of HB maps that are committed
system.switch_cpus1.rename.UndoneMaps        44475916                       # Number of HB maps that are undone due to squashing
system.switch_cpus1.rename.serializingInsts        35831                       # count of serializing insts renamed
system.switch_cpus1.rename.tempSerializingInsts        17940                       # count of temporary serializing insts renamed
system.switch_cpus1.rename.skidInsts          2734310                       # count of insts added to the skid buffer
system.switch_cpus1.memDep0.insertedLoads     14744157                       # Number of loads inserted to the mem dependence unit.
system.switch_cpus1.memDep0.insertedStores      7563133                       # Number of stores inserted to the mem dependence unit.
system.switch_cpus1.memDep0.conflictingLoads        73371                       # Number of conflicting loads.
system.switch_cpus1.memDep0.conflictingStores      1723785                       # Number of conflicting stores.
system.switch_cpus1.iq.iqInstsAdded         153865798                       # Number of instructions added to the IQ (excludes non-spec)
system.switch_cpus1.iq.iqNonSpecInstsAdded        35832                       # Number of non-speculative instructions added to the IQ
system.switch_cpus1.iq.iqInstsIssued        144551463                       # Number of instructions issued
system.switch_cpus1.iq.iqSquashedInstsIssued        91128                       # Number of squashed instructions issued
system.switch_cpus1.iq.iqSquashedInstsExamined     22716647                       # Number of squashed instructions iterated over during squash; mainly for profiling
system.switch_cpus1.iq.iqSquashedOperandsExamined     50247208                       # Number of squashed operands that are examined and possibly removed from graph
system.switch_cpus1.iq.iqSquashedNonSpecRemoved           48                       # Number of squashed non-spec instructions that were removed
system.switch_cpus1.iq.issued_per_cycle::samples    146685596                       # Number of insts issued each cycle
system.switch_cpus1.iq.issued_per_cycle::mean     0.985451                       # Number of insts issued each cycle
system.switch_cpus1.iq.issued_per_cycle::stdev     1.546462                       # Number of insts issued each cycle
system.switch_cpus1.iq.issued_per_cycle::underflows            0      0.00%      0.00% # Number of insts issued each cycle
system.switch_cpus1.iq.issued_per_cycle::0     87685627     59.78%     59.78% # Number of insts issued each cycle
system.switch_cpus1.iq.issued_per_cycle::1     22653539     15.44%     75.22% # Number of insts issued each cycle
system.switch_cpus1.iq.issued_per_cycle::2     12192116      8.31%     83.53% # Number of insts issued each cycle
system.switch_cpus1.iq.issued_per_cycle::3      9060644      6.18%     89.71% # Number of insts issued each cycle
system.switch_cpus1.iq.issued_per_cycle::4      8830854      6.02%     95.73% # Number of insts issued each cycle
system.switch_cpus1.iq.issued_per_cycle::5      3274375      2.23%     97.96% # Number of insts issued each cycle
system.switch_cpus1.iq.issued_per_cycle::6      2469195      1.68%     99.65% # Number of insts issued each cycle
system.switch_cpus1.iq.issued_per_cycle::7       332669      0.23%     99.87% # Number of insts issued each cycle
system.switch_cpus1.iq.issued_per_cycle::8       186577      0.13%    100.00% # Number of insts issued each cycle
system.switch_cpus1.iq.issued_per_cycle::overflows            0      0.00%    100.00% # Number of insts issued each cycle
system.switch_cpus1.iq.issued_per_cycle::min_value            0                       # Number of insts issued each cycle
system.switch_cpus1.iq.issued_per_cycle::max_value            8                       # Number of insts issued each cycle
system.switch_cpus1.iq.issued_per_cycle::total    146685596                       # Number of insts issued each cycle
system.switch_cpus1.iq.fu_full::No_OpClass            0      0.00%      0.00% # attempts to use FU when none available
system.switch_cpus1.iq.fu_full::IntAlu         128538     28.02%     28.02% # attempts to use FU when none available
system.switch_cpus1.iq.fu_full::IntMult             0      0.00%     28.02% # attempts to use FU when none available
system.switch_cpus1.iq.fu_full::IntDiv              0      0.00%     28.02% # attempts to use FU when none available
system.switch_cpus1.iq.fu_full::FloatAdd            0      0.00%     28.02% # attempts to use FU when none available
system.switch_cpus1.iq.fu_full::FloatCmp            0      0.00%     28.02% # attempts to use FU when none available
system.switch_cpus1.iq.fu_full::FloatCvt            0      0.00%     28.02% # attempts to use FU when none available
system.switch_cpus1.iq.fu_full::FloatMult            0      0.00%     28.02% # attempts to use FU when none available
system.switch_cpus1.iq.fu_full::FloatDiv            0      0.00%     28.02% # attempts to use FU when none available
system.switch_cpus1.iq.fu_full::FloatSqrt            0      0.00%     28.02% # attempts to use FU when none available
system.switch_cpus1.iq.fu_full::SimdAdd             0      0.00%     28.02% # attempts to use FU when none available
system.switch_cpus1.iq.fu_full::SimdAddAcc            0      0.00%     28.02% # attempts to use FU when none available
system.switch_cpus1.iq.fu_full::SimdAlu             0      0.00%     28.02% # attempts to use FU when none available
system.switch_cpus1.iq.fu_full::SimdCmp             0      0.00%     28.02% # attempts to use FU when none available
system.switch_cpus1.iq.fu_full::SimdCvt             0      0.00%     28.02% # attempts to use FU when none available
system.switch_cpus1.iq.fu_full::SimdMisc            0      0.00%     28.02% # attempts to use FU when none available
system.switch_cpus1.iq.fu_full::SimdMult            0      0.00%     28.02% # attempts to use FU when none available
system.switch_cpus1.iq.fu_full::SimdMultAcc            0      0.00%     28.02% # attempts to use FU when none available
system.switch_cpus1.iq.fu_full::SimdShift            0      0.00%     28.02% # attempts to use FU when none available
system.switch_cpus1.iq.fu_full::SimdShiftAcc            0      0.00%     28.02% # attempts to use FU when none available
system.switch_cpus1.iq.fu_full::SimdSqrt            0      0.00%     28.02% # attempts to use FU when none available
system.switch_cpus1.iq.fu_full::SimdFloatAdd            0      0.00%     28.02% # attempts to use FU when none available
system.switch_cpus1.iq.fu_full::SimdFloatAlu            0      0.00%     28.02% # attempts to use FU when none available
system.switch_cpus1.iq.fu_full::SimdFloatCmp            0      0.00%     28.02% # attempts to use FU when none available
system.switch_cpus1.iq.fu_full::SimdFloatCvt            0      0.00%     28.02% # attempts to use FU when none available
system.switch_cpus1.iq.fu_full::SimdFloatDiv            0      0.00%     28.02% # attempts to use FU when none available
system.switch_cpus1.iq.fu_full::SimdFloatMisc            0      0.00%     28.02% # attempts to use FU when none available
system.switch_cpus1.iq.fu_full::SimdFloatMult            0      0.00%     28.02% # attempts to use FU when none available
system.switch_cpus1.iq.fu_full::SimdFloatMultAcc            0      0.00%     28.02% # attempts to use FU when none available
system.switch_cpus1.iq.fu_full::SimdFloatSqrt            0      0.00%     28.02% # attempts to use FU when none available
system.switch_cpus1.iq.fu_full::MemRead        171388     37.36%     65.39% # attempts to use FU when none available
system.switch_cpus1.iq.fu_full::MemWrite       158770     34.61%    100.00% # attempts to use FU when none available
system.switch_cpus1.iq.fu_full::IprAccess            0      0.00%    100.00% # attempts to use FU when none available
system.switch_cpus1.iq.fu_full::InstPrefetch            0      0.00%    100.00% # attempts to use FU when none available
system.switch_cpus1.iq.FU_type_0::No_OpClass            0      0.00%      0.00% # Type of FU issued
system.switch_cpus1.iq.FU_type_0::IntAlu    122002537     84.40%     84.40% # Type of FU issued
system.switch_cpus1.iq.FU_type_0::IntMult      1957509      1.35%     85.75% # Type of FU issued
system.switch_cpus1.iq.FU_type_0::IntDiv            0      0.00%     85.75% # Type of FU issued
system.switch_cpus1.iq.FU_type_0::FloatAdd            0      0.00%     85.75% # Type of FU issued
system.switch_cpus1.iq.FU_type_0::FloatCmp            0      0.00%     85.75% # Type of FU issued
system.switch_cpus1.iq.FU_type_0::FloatCvt            0      0.00%     85.75% # Type of FU issued
system.switch_cpus1.iq.FU_type_0::FloatMult            0      0.00%     85.75% # Type of FU issued
system.switch_cpus1.iq.FU_type_0::FloatDiv            0      0.00%     85.75% # Type of FU issued
system.switch_cpus1.iq.FU_type_0::FloatSqrt            0      0.00%     85.75% # Type of FU issued
system.switch_cpus1.iq.FU_type_0::SimdAdd            0      0.00%     85.75% # Type of FU issued
system.switch_cpus1.iq.FU_type_0::SimdAddAcc            0      0.00%     85.75% # Type of FU issued
system.switch_cpus1.iq.FU_type_0::SimdAlu            0      0.00%     85.75% # Type of FU issued
system.switch_cpus1.iq.FU_type_0::SimdCmp            0      0.00%     85.75% # Type of FU issued
system.switch_cpus1.iq.FU_type_0::SimdCvt            0      0.00%     85.75% # Type of FU issued
system.switch_cpus1.iq.FU_type_0::SimdMisc            0      0.00%     85.75% # Type of FU issued
system.switch_cpus1.iq.FU_type_0::SimdMult            0      0.00%     85.75% # Type of FU issued
system.switch_cpus1.iq.FU_type_0::SimdMultAcc            0      0.00%     85.75% # Type of FU issued
system.switch_cpus1.iq.FU_type_0::SimdShift            0      0.00%     85.75% # Type of FU issued
system.switch_cpus1.iq.FU_type_0::SimdShiftAcc            0      0.00%     85.75% # Type of FU issued
system.switch_cpus1.iq.FU_type_0::SimdSqrt            0      0.00%     85.75% # Type of FU issued
system.switch_cpus1.iq.FU_type_0::SimdFloatAdd            0      0.00%     85.75% # Type of FU issued
system.switch_cpus1.iq.FU_type_0::SimdFloatAlu            0      0.00%     85.75% # Type of FU issued
system.switch_cpus1.iq.FU_type_0::SimdFloatCmp            0      0.00%     85.75% # Type of FU issued
system.switch_cpus1.iq.FU_type_0::SimdFloatCvt            0      0.00%     85.75% # Type of FU issued
system.switch_cpus1.iq.FU_type_0::SimdFloatDiv            0      0.00%     85.75% # Type of FU issued
system.switch_cpus1.iq.FU_type_0::SimdFloatMisc        17890      0.01%     85.77% # Type of FU issued
system.switch_cpus1.iq.FU_type_0::SimdFloatMult            0      0.00%     85.77% # Type of FU issued
system.switch_cpus1.iq.FU_type_0::SimdFloatMultAcc            0      0.00%     85.77% # Type of FU issued
system.switch_cpus1.iq.FU_type_0::SimdFloatSqrt            0      0.00%     85.77% # Type of FU issued
system.switch_cpus1.iq.FU_type_0::MemRead     13036930      9.02%     94.79% # Type of FU issued
system.switch_cpus1.iq.FU_type_0::MemWrite      7536597      5.21%    100.00% # Type of FU issued
system.switch_cpus1.iq.FU_type_0::IprAccess            0      0.00%    100.00% # Type of FU issued
system.switch_cpus1.iq.FU_type_0::InstPrefetch            0      0.00%    100.00% # Type of FU issued
system.switch_cpus1.iq.FU_type_0::total     144551463                       # Type of FU issued
system.switch_cpus1.iq.rate                  0.981909                       # Inst issue rate
system.switch_cpus1.iq.fu_busy_cnt             458696                       # FU busy when requested
system.switch_cpus1.iq.fu_busy_rate          0.003173                       # FU busy rate (busy events/executed inst)
system.switch_cpus1.iq.int_inst_queue_reads    436338346                       # Number of integer instruction queue reads
system.switch_cpus1.iq.int_inst_queue_writes    176618525                       # Number of integer instruction queue writes
system.switch_cpus1.iq.int_inst_queue_wakeup_accesses    141473757                       # Number of integer instruction queue wakeup accesses
system.switch_cpus1.iq.fp_inst_queue_reads            0                       # Number of floating instruction queue reads
system.switch_cpus1.iq.fp_inst_queue_writes            0                       # Number of floating instruction queue writes
system.switch_cpus1.iq.fp_inst_queue_wakeup_accesses            0                       # Number of floating instruction queue wakeup accesses
system.switch_cpus1.iq.int_alu_accesses     145010159                       # Number of integer alu accesses
system.switch_cpus1.iq.fp_alu_accesses              0                       # Number of floating point alu accesses
system.switch_cpus1.iew.lsq.thread0.forwLoads       296185                       # Number of loads that had data forwarded from stores
system.switch_cpus1.iew.lsq.thread0.invAddrLoads            0                       # Number of loads ignored due to an invalid address
system.switch_cpus1.iew.lsq.thread0.squashedLoads      3041623                       # Number of loads squashed
system.switch_cpus1.iew.lsq.thread0.ignoredResponses            6                       # Number of memory responses ignored because the instruction is squashed
system.switch_cpus1.iew.lsq.thread0.memOrderViolation          248                       # Number of memory ordering violations
system.switch_cpus1.iew.lsq.thread0.squashedStores       121367                       # Number of stores squashed
system.switch_cpus1.iew.lsq.thread0.invAddrSwpfs            0                       # Number of software prefetches ignored due to an invalid address
system.switch_cpus1.iew.lsq.thread0.blockedLoads            0                       # Number of blocked loads due to partial load-store forwarding
system.switch_cpus1.iew.lsq.thread0.rescheduledLoads            0                       # Number of loads that were rescheduled
system.switch_cpus1.iew.lsq.thread0.cacheBlocked            0                       # Number of times an access to memory failed due to the cache being blocked
system.switch_cpus1.iew.iewIdleCycles               0                       # Number of cycles IEW is idle
system.switch_cpus1.iew.iewSquashCycles       4143271                       # Number of cycles IEW is squashing
system.switch_cpus1.iew.iewBlockCycles         419079                       # Number of cycles IEW is blocking
system.switch_cpus1.iew.iewUnblockCycles        56095                       # Number of cycles IEW is unblocking
system.switch_cpus1.iew.iewDispatchedInsts    153901630                       # Number of instructions dispatched to IQ
system.switch_cpus1.iew.iewDispSquashedInsts       795902                       # Number of squashed instructions skipped by dispatch
system.switch_cpus1.iew.iewDispLoadInsts     14744157                       # Number of dispatched load instructions
system.switch_cpus1.iew.iewDispStoreInsts      7563133                       # Number of dispatched store instructions
system.switch_cpus1.iew.iewDispNonSpecInsts        17940                       # Number of dispatched non-speculative instructions
system.switch_cpus1.iew.iewIQFullEvents         45565                       # Number of times the IQ has become full, causing a stall
system.switch_cpus1.iew.iewLSQFullEvents            0                       # Number of times the LSQ has become full, causing a stall
system.switch_cpus1.iew.memOrderViolationEvents          248                       # Number of memory order violations
system.switch_cpus1.iew.predictedTakenIncorrect      1207618                       # Number of branches that were predicted taken incorrectly
system.switch_cpus1.iew.predictedNotTakenIncorrect      1109590                       # Number of branches that were predicted not taken incorrectly
system.switch_cpus1.iew.branchMispredicts      2317208                       # Number of branch mispredicts detected at execute
system.switch_cpus1.iew.iewExecutedInsts    142303596                       # Number of executed instructions
system.switch_cpus1.iew.iewExecLoadInsts     12713485                       # Number of load instructions executed
system.switch_cpus1.iew.iewExecSquashedInsts      2247867                       # Number of squashed instructions skipped in execute
system.switch_cpus1.iew.exec_swp                    0                       # number of swp insts executed
system.switch_cpus1.iew.exec_nop                    0                       # number of nop insts executed
system.switch_cpus1.iew.exec_refs            20249869                       # number of memory reference insts executed
system.switch_cpus1.iew.exec_branches        20144062                       # Number of branches executed
system.switch_cpus1.iew.exec_stores           7536384                       # Number of stores executed
system.switch_cpus1.iew.exec_rate            0.966639                       # Inst execution rate
system.switch_cpus1.iew.wb_sent             141473814                       # cumulative count of insts sent to commit
system.switch_cpus1.iew.wb_count            141473757                       # cumulative count of insts written-back
system.switch_cpus1.iew.wb_producers         83642776                       # num instructions producing a value
system.switch_cpus1.iew.wb_consumers        231647989                       # num instructions consuming a value
system.switch_cpus1.iew.wb_penalized                0                       # number of instrctions required to write to 'other' IQ
system.switch_cpus1.iew.wb_rate              0.961002                       # insts written-back per cycle
system.switch_cpus1.iew.wb_fanout            0.361077                       # average fanout of values written-back
system.switch_cpus1.iew.wb_penalized_rate            0                       # fraction of instructions written-back that wrote to 'other' IQ
system.switch_cpus1.commit.commitCommittedInsts    104712773                       # The number of committed instructions
system.switch_cpus1.commit.commitCommittedOps    129073441                       # The number of committed instructions
system.switch_cpus1.commit.commitSquashedInsts     24828454                       # The number of squashed insts skipped by commit
system.switch_cpus1.commit.commitNonSpecStalls        35784                       # The number of times commit has been forced to stall to communicate backwards
system.switch_cpus1.commit.branchMispredicts      2113023                       # The number of times a branch was mispredicted
system.switch_cpus1.commit.committed_per_cycle::samples    142542325                       # Number of insts commited each cycle
system.switch_cpus1.commit.committed_per_cycle::mean     0.905510                       # Number of insts commited each cycle
system.switch_cpus1.commit.committed_per_cycle::stdev     1.714139                       # Number of insts commited each cycle
system.switch_cpus1.commit.committed_per_cycle::underflows            0      0.00%      0.00% # Number of insts commited each cycle
system.switch_cpus1.commit.committed_per_cycle::0     90346327     63.38%     63.38% # Number of insts commited each cycle
system.switch_cpus1.commit.committed_per_cycle::1     25147194     17.64%     81.02% # Number of insts commited each cycle
system.switch_cpus1.commit.committed_per_cycle::2      9837531      6.90%     87.93% # Number of insts commited each cycle
system.switch_cpus1.commit.committed_per_cycle::3      5182119      3.64%     91.56% # Number of insts commited each cycle
system.switch_cpus1.commit.committed_per_cycle::4      4409311      3.09%     94.65% # Number of insts commited each cycle
system.switch_cpus1.commit.committed_per_cycle::5      2123563      1.49%     96.14% # Number of insts commited each cycle
system.switch_cpus1.commit.committed_per_cycle::6       987969      0.69%     96.84% # Number of insts commited each cycle
system.switch_cpus1.commit.committed_per_cycle::7      1544533      1.08%     97.92% # Number of insts commited each cycle
system.switch_cpus1.commit.committed_per_cycle::8      2963778      2.08%    100.00% # Number of insts commited each cycle
system.switch_cpus1.commit.committed_per_cycle::overflows            0      0.00%    100.00% # Number of insts commited each cycle
system.switch_cpus1.commit.committed_per_cycle::min_value            0                       # Number of insts commited each cycle
system.switch_cpus1.commit.committed_per_cycle::max_value            8                       # Number of insts commited each cycle
system.switch_cpus1.commit.committed_per_cycle::total    142542325                       # Number of insts commited each cycle
system.switch_cpus1.commit.committedInsts    104712773                       # Number of instructions committed
system.switch_cpus1.commit.committedOps     129073441                       # Number of ops (including micro ops) committed
system.switch_cpus1.commit.swp_count                0                       # Number of s/w prefetches committed
[...]
system.cpu2.icache.overall_miss_latency::switch_cpus2.inst      2314638                       # number of overall miss cycles
system.cpu2.icache.overall_miss_latency::total      2314638                       # number of overall miss cycles
system.cpu2.icache.ReadReq_accesses::switch_cpus2.inst     12333350                       # number of ReadReq accesses(hits+misses)
system.cpu2.icache.ReadReq_accesses::total     12333350                       # number of ReadReq accesses(hits+misses)
system.cpu2.icache.demand_accesses::switch_cpus2.inst     12333350                       # number of demand (read+write) accesses
system.cpu2.icache.demand_accesses::total     12333350                       # number of demand (read+write) accesses
system.cpu2.icache.overall_accesses::switch_cpus2.inst     12333350                       # number of overall (read+write) accesses
system.cpu2.icache.overall_accesses::total     12333350                       # number of overall (read+write) accesses
system.cpu2.icache.ReadReq_miss_rate::switch_cpus2.inst     0.000001                       # miss rate for ReadReq accesses
system.cpu2.icache.ReadReq_miss_rate::total     0.000001                       # miss rate for ReadReq accesses
system.cpu2.icache.demand_miss_rate::switch_cpus2.inst     0.000001                       # miss rate for demand accesses
system.cpu2.icache.demand_miss_rate::total     0.000001                       # miss rate for demand accesses
system.cpu2.icache.overall_miss_rate::switch_cpus2.inst     0.000001                       # miss rate for overall accesses
system.cpu2.icache.overall_miss_rate::total     0.000001                       # miss rate for overall accesses
system.cpu2.icache.ReadReq_avg_miss_latency::switch_cpus2.inst 231463.800000                       # average ReadReq miss latency
system.cpu2.icache.ReadReq_avg_miss_latency::total 231463.800000                       # average ReadReq miss latency
system.cpu2.icache.demand_avg_miss_latency::switch_cpus2.inst 231463.800000                       # average overall miss latency
system.cpu2.icache.demand_avg_miss_latency::total 231463.800000                       # average overall miss latency
system.cpu2.icache.overall_avg_miss_latency::switch_cpus2.inst 231463.800000                       # average overall miss latency
system.cpu2.icache.overall_avg_miss_latency::total 231463.800000                       # average overall miss latency
system.cpu2.icache.blocked_cycles::no_mshrs            0                       # number of cycles access was blocked
system.cpu2.icache.blocked_cycles::no_targets            0                       # number of cycles access was blocked
system.cpu2.icache.blocked::no_mshrs                0                       # number of cycles access was blocked
system.cpu2.icache.blocked::no_targets              0                       # number of cycles access was blocked
system.cpu2.icache.avg_blocked_cycles::no_mshrs          nan                       # average number of cycles each access was blocked
system.cpu2.icache.avg_blocked_cycles::no_targets          nan                       # average number of cycles each access was blocked
system.cpu2.icache.fast_writes                      0                       # number of fast writes performed
system.cpu2.icache.cache_copies                     0                       # number of cache copies performed
system.cpu2.icache.ReadReq_mshr_misses::switch_cpus2.inst           10                       # number of ReadReq MSHR misses
system.cpu2.icache.ReadReq_mshr_misses::total           10                       # number of ReadReq MSHR misses
system.cpu2.icache.demand_mshr_misses::switch_cpus2.inst           10                       # number of demand (read+write) MSHR misses
system.cpu2.icache.demand_mshr_misses::total           10                       # number of demand (read+write) MSHR misses
system.cpu2.icache.overall_mshr_misses::switch_cpus2.inst           10                       # number of overall MSHR misses
system.cpu2.icache.overall_mshr_misses::total           10                       # number of overall MSHR misses
system.cpu2.icache.ReadReq_mshr_miss_latency::switch_cpus2.inst      2209638                       # number of ReadReq MSHR miss cycles
system.cpu2.icache.ReadReq_mshr_miss_latency::total      2209638                       # number of ReadReq MSHR miss cycles
system.cpu2.icache.demand_mshr_miss_latency::switch_cpus2.inst      2209638                       # number of demand (read+write) MSHR miss cycles
system.cpu2.icache.demand_mshr_miss_latency::total      2209638                       # number of demand (read+write) MSHR miss cycles
system.cpu2.icache.overall_mshr_miss_latency::switch_cpus2.inst      2209638                       # number of overall MSHR miss cycles
system.cpu2.icache.overall_mshr_miss_latency::total      2209638                       # number of overall MSHR miss cycles
system.cpu2.icache.ReadReq_mshr_miss_rate::switch_cpus2.inst     0.000001                       # mshr miss rate for ReadReq accesses
system.cpu2.icache.ReadReq_mshr_miss_rate::total     0.000001                       # mshr miss rate for ReadReq accesses
system.cpu2.icache.demand_mshr_miss_rate::switch_cpus2.inst     0.000001                       # mshr miss rate for demand accesses
system.cpu2.icache.demand_mshr_miss_rate::total     0.000001                       # mshr miss rate for demand accesses
system.cpu2.icache.overall_mshr_miss_rate::switch_cpus2.inst     0.000001                       # mshr miss rate for overall accesses
system.cpu2.icache.overall_mshr_miss_rate::total     0.000001                       # mshr miss rate for overall accesses
system.cpu2.icache.ReadReq_avg_mshr_miss_latency::switch_cpus2.inst 220963.800000                       # average ReadReq mshr miss latency
system.cpu2.icache.ReadReq_avg_mshr_miss_latency::total 220963.800000                       # average ReadReq mshr miss latency
system.cpu2.icache.demand_avg_mshr_miss_latency::switch_cpus2.inst 220963.800000                       # average overall mshr miss latency
system.cpu2.icache.demand_avg_mshr_miss_latency::total 220963.800000                       # average overall mshr miss latency
system.cpu2.icache.overall_avg_mshr_miss_latency::switch_cpus2.inst 220963.800000                       # average overall mshr miss latency
system.cpu2.icache.overall_avg_mshr_miss_latency::total 220963.800000                       # average overall mshr miss latency
system.cpu2.icache.no_allocate_misses               0                       # Number of misses that were no-allocate
system.cpu2.dcache.replacements                 99755                       # number of replacements
system.cpu2.dcache.tagsinuse                      256                       # Cycle average of tags in use
system.cpu2.dcache.total_refs               191106587                       # Total number of references to valid blocks.
system.cpu2.dcache.sampled_refs                100011                       # Sample count of references to valid blocks.
system.cpu2.dcache.avg_refs               1910.855676                       # Average number of references to valid blocks.
system.cpu2.dcache.warmup_cycle                     0                       # Cycle when the warmup percentage was hit.
system.cpu2.dcache.occ_blocks::switch_cpus2.data   234.584019                       # Average occupied blocks per requestor
system.cpu2.dcache.occ_blocks::cpu2.data    21.415981                       # Average occupied blocks per requestor
system.cpu2.dcache.occ_percent::switch_cpus2.data     0.916344                       # Average percentage of cache occupancy
system.cpu2.dcache.occ_percent::cpu2.data     0.083656                       # Average percentage of cache occupancy
system.cpu2.dcache.occ_percent::total               1                       # Average percentage of cache occupancy
system.cpu2.dcache.ReadReq_hits::switch_cpus2.data     11176039                       # number of ReadReq hits
system.cpu2.dcache.ReadReq_hits::total       11176039                       # number of ReadReq hits
system.cpu2.dcache.WriteReq_hits::switch_cpus2.data      7890907                       # number of WriteReq hits
system.cpu2.dcache.WriteReq_hits::total       7890907                       # number of WriteReq hits
system.cpu2.dcache.LoadLockedReq_hits::switch_cpus2.data        16733                       # number of LoadLockedReq hits
system.cpu2.dcache.LoadLockedReq_hits::total        16733                       # number of LoadLockedReq hits
system.cpu2.dcache.StoreCondReq_hits::switch_cpus2.data        16386                       # number of StoreCondReq hits
system.cpu2.dcache.StoreCondReq_hits::total        16386                       # number of StoreCondReq hits
system.cpu2.dcache.demand_hits::switch_cpus2.data     19066946                       # number of demand (read+write) hits
system.cpu2.dcache.demand_hits::total        19066946                       # number of demand (read+write) hits
system.cpu2.dcache.overall_hits::switch_cpus2.data     19066946                       # number of overall hits
system.cpu2.dcache.overall_hits::total       19066946                       # number of overall hits
system.cpu2.dcache.ReadReq_misses::switch_cpus2.data       418900                       # number of ReadReq misses
system.cpu2.dcache.ReadReq_misses::total       418900                       # number of ReadReq misses
system.cpu2.dcache.WriteReq_misses::switch_cpus2.data          100                       # number of WriteReq misses
system.cpu2.dcache.WriteReq_misses::total          100                       # number of WriteReq misses
system.cpu2.dcache.demand_misses::switch_cpus2.data       419000                       # number of demand (read+write) misses
system.cpu2.dcache.demand_misses::total        419000                       # number of demand (read+write) misses
system.cpu2.dcache.overall_misses::switch_cpus2.data       419000                       # number of overall misses
system.cpu2.dcache.overall_misses::total       419000                       # number of overall misses
system.cpu2.dcache.ReadReq_miss_latency::switch_cpus2.data  45220779587                       # number of ReadReq miss cycles
system.cpu2.dcache.ReadReq_miss_latency::total  45220779587                       # number of ReadReq miss cycles
system.cpu2.dcache.WriteReq_miss_latency::switch_cpus2.data     16310555                       # number of WriteReq miss cycles
system.cpu2.dcache.WriteReq_miss_latency::total     16310555                       # number of WriteReq miss cycles
system.cpu2.dcache.demand_miss_latency::switch_cpus2.data  45237090142                       # number of demand (read+write) miss cycles
system.cpu2.dcache.demand_miss_latency::total  45237090142                       # number of demand (read+write) miss cycles
system.cpu2.dcache.overall_miss_latency::switch_cpus2.data  45237090142                       # number of overall miss cycles
system.cpu2.dcache.overall_miss_latency::total  45237090142                       # number of overall miss cycles
system.cpu2.dcache.ReadReq_accesses::switch_cpus2.data     11594939                       # number of ReadReq accesses(hits+misses)
system.cpu2.dcache.ReadReq_accesses::total     11594939                       # number of ReadReq accesses(hits+misses)
system.cpu2.dcache.WriteReq_accesses::switch_cpus2.data      7891007                       # number of WriteReq accesses(hits+misses)
system.cpu2.dcache.WriteReq_accesses::total      7891007                       # number of WriteReq accesses(hits+misses)
system.cpu2.dcache.LoadLockedReq_accesses::switch_cpus2.data        16733                       # number of LoadLockedReq accesses(hits+misses)
system.cpu2.dcache.LoadLockedReq_accesses::total        16733                       # number of LoadLockedReq accesses(hits+misses)
system.cpu2.dcache.StoreCondReq_accesses::switch_cpus2.data        16386                       # number of StoreCondReq accesses(hits+misses)
system.cpu2.dcache.StoreCondReq_accesses::total        16386                       # number of StoreCondReq accesses(hits+misses)
system.cpu2.dcache.demand_accesses::switch_cpus2.data     19485946                       # number of demand (read+write) accesses
system.cpu2.dcache.demand_accesses::total     19485946                       # number of demand (read+write) accesses
system.cpu2.dcache.overall_accesses::switch_cpus2.data     19485946                       # number of overall (read+write) accesses
system.cpu2.dcache.overall_accesses::total     19485946                       # number of overall (read+write) accesses
system.cpu2.dcache.ReadReq_miss_rate::switch_cpus2.data     0.036128                       # miss rate for ReadReq accesses
system.cpu2.dcache.ReadReq_miss_rate::total     0.036128                       # miss rate for ReadReq accesses
system.cpu2.dcache.WriteReq_miss_rate::switch_cpus2.data     0.000013                       # miss rate for WriteReq accesses
system.cpu2.dcache.WriteReq_miss_rate::total     0.000013                       # miss rate for WriteReq accesses
system.cpu2.dcache.demand_miss_rate::switch_cpus2.data     0.021503                       # miss rate for demand accesses
system.cpu2.dcache.demand_miss_rate::total     0.021503                       # miss rate for demand accesses
system.cpu2.dcache.overall_miss_rate::switch_cpus2.data     0.021503                       # miss rate for overall accesses
system.cpu2.dcache.overall_miss_rate::total     0.021503                       # miss rate for overall accesses
system.cpu2.dcache.ReadReq_avg_miss_latency::switch_cpus2.data 107951.252296                       # average ReadReq miss latency
system.cpu2.dcache.ReadReq_avg_miss_latency::total 107951.252296                       # average ReadReq miss latency
system.cpu2.dcache.WriteReq_avg_miss_latency::switch_cpus2.data 163105.550000                       # average WriteReq miss latency
system.cpu2.dcache.WriteReq_avg_miss_latency::total 163105.550000                       # average WriteReq miss latency
system.cpu2.dcache.demand_avg_miss_latency::switch_cpus2.data 107964.415613                       # average overall miss latency
system.cpu2.dcache.demand_avg_miss_latency::total 107964.415613                       # average overall miss latency
system.cpu2.dcache.overall_avg_miss_latency::switch_cpus2.data 107964.415613                       # average overall miss latency
system.cpu2.dcache.overall_avg_miss_latency::total 107964.415613                       # average overall miss latency
system.cpu2.dcache.blocked_cycles::no_mshrs            0                       # number of cycles access was blocked
system.cpu2.dcache.blocked_cycles::no_targets            0                       # number of cycles access was blocked
system.cpu2.dcache.blocked::no_mshrs                0                       # number of cycles access was blocked
system.cpu2.dcache.blocked::no_targets              0                       # number of cycles access was blocked
system.cpu2.dcache.avg_blocked_cycles::no_mshrs          nan                       # average number of cycles each access was blocked
system.cpu2.dcache.avg_blocked_cycles::no_targets          nan                       # average number of cycles each access was blocked
system.cpu2.dcache.fast_writes                      0                       # number of fast writes performed
system.cpu2.dcache.cache_copies                     0                       # number of cache copies performed
system.cpu2.dcache.writebacks::writebacks        18965                       # number of writebacks
system.cpu2.dcache.writebacks::total            18965                       # number of writebacks
system.cpu2.dcache.ReadReq_mshr_hits::switch_cpus2.data       319145                       # number of ReadReq MSHR hits
system.cpu2.dcache.ReadReq_mshr_hits::total       319145                       # number of ReadReq MSHR hits
system.cpu2.dcache.WriteReq_mshr_hits::switch_cpus2.data          100                       # number of WriteReq MSHR hits
system.cpu2.dcache.WriteReq_mshr_hits::total          100                       # number of WriteReq MSHR hits
system.cpu2.dcache.demand_mshr_hits::switch_cpus2.data       319245                       # number of demand (read+write) MSHR hits
system.cpu2.dcache.demand_mshr_hits::total       319245                       # number of demand (read+write) MSHR hits
system.cpu2.dcache.overall_mshr_hits::switch_cpus2.data       319245                       # number of overall MSHR hits
system.cpu2.dcache.overall_mshr_hits::total       319245                       # number of overall MSHR hits
system.cpu2.dcache.ReadReq_mshr_misses::switch_cpus2.data        99755                       # number of ReadReq MSHR misses
system.cpu2.dcache.ReadReq_mshr_misses::total        99755                       # number of ReadReq MSHR misses
system.cpu2.dcache.demand_mshr_misses::switch_cpus2.data        99755                       # number of demand (read+write) MSHR misses
system.cpu2.dcache.demand_mshr_misses::total        99755                       # number of demand (read+write) MSHR misses
system.cpu2.dcache.overall_mshr_misses::switch_cpus2.data        99755                       # number of overall MSHR misses
system.cpu2.dcache.overall_mshr_misses::total        99755                       # number of overall MSHR misses
system.cpu2.dcache.ReadReq_mshr_miss_latency::switch_cpus2.data  10321464182                       # number of ReadReq MSHR miss cycles
system.cpu2.dcache.ReadReq_mshr_miss_latency::total  10321464182                       # number of ReadReq MSHR miss cycles
system.cpu2.dcache.demand_mshr_miss_latency::switch_cpus2.data  10321464182                       # number of demand (read+write) MSHR miss cycles
system.cpu2.dcache.demand_mshr_miss_latency::total  10321464182                       # number of demand (read+write) MSHR miss cycles
system.cpu2.dcache.overall_mshr_miss_latency::switch_cpus2.data  10321464182                       # number of overall MSHR miss cycles
system.cpu2.dcache.overall_mshr_miss_latency::total  10321464182                       # number of overall MSHR miss cycles
system.cpu2.dcache.ReadReq_mshr_miss_rate::switch_cpus2.data     0.008603                       # mshr miss rate for ReadReq accesses
system.cpu2.dcache.ReadReq_mshr_miss_rate::total     0.008603                       # mshr miss rate for ReadReq accesses
system.cpu2.dcache.demand_mshr_miss_rate::switch_cpus2.data     0.005119                       # mshr miss rate for demand accesses
system.cpu2.dcache.demand_mshr_miss_rate::total     0.005119                       # mshr miss rate for demand accesses
system.cpu2.dcache.overall_mshr_miss_rate::switch_cpus2.data     0.005119                       # mshr miss rate for overall accesses
system.cpu2.dcache.overall_mshr_miss_rate::total     0.005119                       # mshr miss rate for overall accesses
system.cpu2.dcache.ReadReq_avg_mshr_miss_latency::switch_cpus2.data 103468.138760                       # average ReadReq mshr miss latency
system.cpu2.dcache.ReadReq_avg_mshr_miss_latency::total 103468.138760                       # average ReadReq mshr miss latency
system.cpu2.dcache.demand_avg_mshr_miss_latency::switch_cpus2.data 103468.138760                       # average overall mshr miss latency
system.cpu2.dcache.demand_avg_mshr_miss_latency::total 103468.138760                       # average overall mshr miss latency
system.cpu2.dcache.overall_avg_mshr_miss_latency::switch_cpus2.data 103468.138760                       # average overall mshr miss latency
system.cpu2.dcache.overall_avg_mshr_miss_latency::total 103468.138760                       # average overall mshr miss latency
system.cpu2.dcache.no_allocate_misses               0                       # Number of misses that were no-allocate

---------- End Simulation Statistics   ----------
