
---------- Begin Simulation Statistics ----------
sim_seconds                                  0.104609                       # Number of seconds simulated
sim_ticks                                104608827249                       # Number of ticks simulated
final_tick                               632384203794                       # Number of ticks from beginning of simulation (restored from checkpoints and never reset)
sim_freq                                 1000000000000                       # Frequency of simulated ticks
host_inst_rate                                 319152                       # Simulator instruction rate (inst/s)
host_op_rate                                   409358                       # Simulator op (including micro ops) rate (op/s)
host_tick_rate                                1936799                       # Simulator tick rate (ticks/s)
host_mem_usage                               67621672                       # Number of bytes of host memory used
host_seconds                                 54011.20                       # Real time elapsed on the host
sim_insts                                 17237778475                       # Number of instructions simulated
sim_ops                                   22109922572                       # Number of ops (including micro ops) simulated
system.physmem.bytes_read::switch_cpus00.inst         5120                       # Number of bytes read from this memory
system.physmem.bytes_read::switch_cpus00.data      1825024                       # Number of bytes read from this memory
system.physmem.bytes_read::switch_cpus01.inst         4352                       # Number of bytes read from this memory
system.physmem.bytes_read::switch_cpus01.data      2498048                       # Number of bytes read from this memory
system.physmem.bytes_read::switch_cpus02.inst         4864                       # Number of bytes read from this memory
system.physmem.bytes_read::switch_cpus02.data      2544896                       # Number of bytes read from this memory
system.physmem.bytes_read::switch_cpus03.inst         5120                       # Number of bytes read from this memory
system.physmem.bytes_read::switch_cpus03.data      1422976                       # Number of bytes read from this memory
system.physmem.bytes_read::switch_cpus04.inst         4352                       # Number of bytes read from this memory
system.physmem.bytes_read::switch_cpus04.data      2466688                       # Number of bytes read from this memory
system.physmem.bytes_read::switch_cpus05.inst         4736                       # Number of bytes read from this memory
system.physmem.bytes_read::switch_cpus05.data      2414208                       # Number of bytes read from this memory
system.physmem.bytes_read::switch_cpus06.inst         5120                       # Number of bytes read from this memory
system.physmem.bytes_read::switch_cpus06.data      4073600                       # Number of bytes read from this memory
system.physmem.bytes_read::switch_cpus07.inst         5120                       # Number of bytes read from this memory
system.physmem.bytes_read::switch_cpus07.data      2533504                       # Number of bytes read from this memory
system.physmem.bytes_read::switch_cpus08.inst         4992                       # Number of bytes read from this memory
system.physmem.bytes_read::switch_cpus08.data      3597440                       # Number of bytes read from this memory
system.physmem.bytes_read::switch_cpus09.inst         4864                       # Number of bytes read from this memory
system.physmem.bytes_read::switch_cpus09.data      1822208                       # Number of bytes read from this memory
system.physmem.bytes_read::switch_cpus10.inst         5376                       # Number of bytes read from this memory
system.physmem.bytes_read::switch_cpus10.data      4168320                       # Number of bytes read from this memory
system.physmem.bytes_read::switch_cpus11.inst         4352                       # Number of bytes read from this memory
system.physmem.bytes_read::switch_cpus11.data      2437504                       # Number of bytes read from this memory
system.physmem.bytes_read::switch_cpus12.inst         4480                       # Number of bytes read from this memory
system.physmem.bytes_read::switch_cpus12.data      1382784                       # Number of bytes read from this memory
system.physmem.bytes_read::switch_cpus13.inst         5248                       # Number of bytes read from this memory
system.physmem.bytes_read::switch_cpus13.data      1759872                       # Number of bytes read from this memory
system.physmem.bytes_read::switch_cpus14.inst         4352                       # Number of bytes read from this memory
system.physmem.bytes_read::switch_cpus14.data      2444416                       # Number of bytes read from this memory
system.physmem.bytes_read::switch_cpus15.inst         4352                       # Number of bytes read from this memory
system.physmem.bytes_read::switch_cpus15.data      2481280                       # Number of bytes read from this memory
system.physmem.bytes_read::total             39949568                       # Number of bytes read from this memory
system.physmem.bytes_inst_read::switch_cpus00.inst         5120                       # Number of instructions bytes read from this memory
system.physmem.bytes_inst_read::switch_cpus01.inst         4352                       # Number of instructions bytes read from this memory
system.physmem.bytes_inst_read::switch_cpus02.inst         4864                       # Number of instructions bytes read from this memory
system.physmem.bytes_inst_read::switch_cpus03.inst         5120                       # Number of instructions bytes read from this memory
system.physmem.bytes_inst_read::switch_cpus04.inst         4352                       # Number of instructions bytes read from this memory
system.physmem.bytes_inst_read::switch_cpus05.inst         4736                       # Number of instructions bytes read from this memory
system.physmem.bytes_inst_read::switch_cpus06.inst         5120                       # Number of instructions bytes read from this memory
system.physmem.bytes_inst_read::switch_cpus07.inst         5120                       # Number of instructions bytes read from this memory
system.physmem.bytes_inst_read::switch_cpus08.inst         4992                       # Number of instructions bytes read from this memory
system.physmem.bytes_inst_read::switch_cpus09.inst         4864                       # Number of instructions bytes read from this memory
system.physmem.bytes_inst_read::switch_cpus10.inst         5376                       # Number of instructions bytes read from this memory
system.physmem.bytes_inst_read::switch_cpus11.inst         4352                       # Number of instructions bytes read from this memory
system.physmem.bytes_inst_read::switch_cpus12.inst         4480                       # Number of instructions bytes read from this memory
system.physmem.bytes_inst_read::switch_cpus13.inst         5248                       # Number of instructions bytes read from this memory
system.physmem.bytes_inst_read::switch_cpus14.inst         4352                       # Number of instructions bytes read from this memory
system.physmem.bytes_inst_read::switch_cpus15.inst         4352                       # Number of instructions bytes read from this memory
system.physmem.bytes_inst_read::total           76800                       # Number of instructions bytes read from this memory
system.physmem.bytes_written::writebacks     11019136                       # Number of bytes written to this memory
system.physmem.bytes_written::total          11019136                       # Number of bytes written to this memory
system.physmem.num_reads::switch_cpus00.inst           40                       # Number of read requests responded to by this memory
system.physmem.num_reads::switch_cpus00.data        14258                       # Number of read requests responded to by this memory
system.physmem.num_reads::switch_cpus01.inst           34                       # Number of read requests responded to by this memory
system.physmem.num_reads::switch_cpus01.data        19516                       # Number of read requests responded to by this memory
system.physmem.num_reads::switch_cpus02.inst           38                       # Number of read requests responded to by this memory
system.physmem.num_reads::switch_cpus02.data        19882                       # Number of read requests responded to by this memory
system.physmem.num_reads::switch_cpus03.inst           40                       # Number of read requests responded to by this memory
system.physmem.num_reads::switch_cpus03.data        11117                       # Number of read requests responded to by this memory
system.physmem.num_reads::switch_cpus04.inst           34                       # Number of read requests responded to by this memory
system.physmem.num_reads::switch_cpus04.data        19271                       # Number of read requests responded to by this memory
system.physmem.num_reads::switch_cpus05.inst           37                       # Number of read requests responded to by this memory
system.physmem.num_reads::switch_cpus05.data        18861                       # Number of read requests responded to by this memory
system.physmem.num_reads::switch_cpus06.inst           40                       # Number of read requests responded to by this memory
system.physmem.num_reads::switch_cpus06.data        31825                       # Number of read requests responded to by this memory
system.physmem.num_reads::switch_cpus07.inst           40                       # Number of read requests responded to by this memory
system.physmem.num_reads::switch_cpus07.data        19793                       # Number of read requests responded to by this memory
system.physmem.num_reads::switch_cpus08.inst           39                       # Number of read requests responded to by this memory
system.physmem.num_reads::switch_cpus08.data        28105                       # Number of read requests responded to by this memory
system.physmem.num_reads::switch_cpus09.inst           38                       # Number of read requests responded to by this memory
system.physmem.num_reads::switch_cpus09.data        14236                       # Number of read requests responded to by this memory
system.physmem.num_reads::switch_cpus10.inst           42                       # Number of read requests responded to by this memory
system.physmem.num_reads::switch_cpus10.data        32565                       # Number of read requests responded to by this memory
system.physmem.num_reads::switch_cpus11.inst           34                       # Number of read requests responded to by this memory
system.physmem.num_reads::switch_cpus11.data        19043                       # Number of read requests responded to by this memory
system.physmem.num_reads::switch_cpus12.inst           35                       # Number of read requests responded to by this memory
system.physmem.num_reads::switch_cpus12.data        10803                       # Number of read requests responded to by this memory
system.physmem.num_reads::switch_cpus13.inst           41                       # Number of read requests responded to by this memory
system.physmem.num_reads::switch_cpus13.data        13749                       # Number of read requests responded to by this memory
system.physmem.num_reads::switch_cpus14.inst           34                       # Number of read requests responded to by this memory
system.physmem.num_reads::switch_cpus14.data        19097                       # Number of read requests responded to by this memory
system.physmem.num_reads::switch_cpus15.inst           34                       # Number of read requests responded to by this memory
system.physmem.num_reads::switch_cpus15.data        19385                       # Number of read requests responded to by this memory
system.physmem.num_reads::total                312106                       # Number of read requests responded to by this memory
system.physmem.num_writes::writebacks           86087                       # Number of write requests responded to by this memory
system.physmem.num_writes::functional               0                       # Number of write requests responded to by this memory
system.physmem.num_writes::interrupt                0                       # Number of write requests responded to by this memory
system.physmem.num_writes::switch_cpus00.dtb.walker            0                       # Number of write requests responded to by this memory
system.physmem.num_writes::switch_cpus00.itb.walker            0                       # Number of write requests responded to by this memory
system.physmem.num_writes::switch_cpus00.inst            0                       # Number of write requests responded to by this memory
system.physmem.num_writes::switch_cpus00.data            0                       # Number of write requests responded to by this memory
system.physmem.num_writes::switch_cpus01.dtb.walker            0                       # Number of write requests responded to by this memory
system.physmem.num_writes::switch_cpus01.itb.walker            0                       # Number of write requests responded to by this memory
system.physmem.num_writes::switch_cpus01.inst            0                       # Number of write requests responded to by this memory
system.physmem.num_writes::switch_cpus01.data            0                       # Number of write requests responded to by this memory
system.physmem.num_writes::switch_cpus02.dtb.walker            0                       # Number of write requests responded to by this memory
system.physmem.num_writes::switch_cpus02.itb.walker            0                       # Number of write requests responded to by this memory
system.physmem.num_writes::switch_cpus02.inst            0                       # Number of write requests responded to by this memory
system.physmem.num_writes::switch_cpus02.data            0                       # Number of write requests responded to by this memory
system.physmem.num_writes::switch_cpus03.dtb.walker            0                       # Number of write requests responded to by this memory
system.physmem.num_writes::switch_cpus03.itb.walker            0                       # Number of write requests responded to by this memory
system.physmem.num_writes::switch_cpus03.inst            0                       # Number of write requests responded to by this memory
system.physmem.num_writes::switch_cpus03.data            0                       # Number of write requests responded to by this memory
system.physmem.num_writes::switch_cpus04.dtb.walker            0                       # Number of write requests responded to by this memory
system.physmem.num_writes::switch_cpus04.itb.walker            0                       # Number of write requests responded to by this memory
system.physmem.num_writes::switch_cpus04.inst            0                       # Number of write requests responded to by this memory
system.physmem.num_writes::switch_cpus04.data            0                       # Number of write requests responded to by this memory
system.physmem.num_writes::switch_cpus05.dtb.walker            0                       # Number of write requests responded to by this memory
system.physmem.num_writes::switch_cpus05.itb.walker            0                       # Number of write requests responded to by this memory
system.physmem.num_writes::switch_cpus05.inst            0                       # Number of write requests responded to by this memory
system.physmem.num_writes::switch_cpus05.data            0                       # Number of write requests responded to by this memory
system.physmem.num_writes::switch_cpus06.dtb.walker            0                       # Number of write requests responded to by this memory
system.physmem.num_writes::switch_cpus06.itb.walker            0                       # Number of write requests responded to by this memory
system.physmem.num_writes::switch_cpus06.inst            0                       # Number of write requests responded to by this memory
system.physmem.num_writes::switch_cpus06.data            0                       # Number of write requests responded to by this memory
system.physmem.num_writes::switch_cpus07.dtb.walker            0                       # Number of write requests responded to by this memory
system.physmem.num_writes::switch_cpus07.itb.walker            0                       # Number of write requests responded to by this memory
system.physmem.num_writes::switch_cpus07.inst            0                       # Number of write requests responded to by this memory
system.physmem.num_writes::switch_cpus07.data            0                       # Number of write requests responded to by this memory
system.physmem.num_writes::switch_cpus08.dtb.walker            0                       # Number of write requests responded to by this memory
system.physmem.num_writes::switch_cpus08.itb.walker            0                       # Number of write requests responded to by this memory
system.physmem.num_writes::switch_cpus08.inst            0                       # Number of write requests responded to by this memory
system.physmem.num_writes::switch_cpus08.data            0                       # Number of write requests responded to by this memory
system.physmem.num_writes::switch_cpus09.dtb.walker            0                       # Number of write requests responded to by this memory
system.physmem.num_writes::switch_cpus09.itb.walker            0                       # Number of write requests responded to by this memory
system.physmem.num_writes::switch_cpus09.inst            0                       # Number of write requests responded to by this memory
system.physmem.num_writes::switch_cpus09.data            0                       # Number of write requests responded to by this memory
system.physmem.num_writes::switch_cpus10.dtb.walker            0                       # Number of write requests responded to by this memory
system.physmem.num_writes::switch_cpus10.itb.walker            0                       # Number of write requests responded to by this memory
system.physmem.num_writes::switch_cpus10.inst            0                       # Number of write requests responded to by this memory
system.physmem.num_writes::switch_cpus10.data            0                       # Number of write requests responded to by this memory
system.physmem.num_writes::switch_cpus11.dtb.walker            0                       # Number of write requests responded to by this memory
system.physmem.num_writes::switch_cpus11.itb.walker            0                       # Number of write requests responded to by this memory
system.physmem.num_writes::switch_cpus11.inst            0                       # Number of write requests responded to by this memory
system.physmem.num_writes::switch_cpus11.data            0                       # Number of write requests responded to by this memory
system.physmem.num_writes::switch_cpus12.dtb.walker            0                       # Number of write requests responded to by this memory
system.physmem.num_writes::switch_cpus12.itb.walker            0                       # Number of write requests responded to by this memory
system.physmem.num_writes::switch_cpus12.inst            0                       # Number of write requests responded to by this memory
system.physmem.num_writes::switch_cpus12.data            0                       # Number of write requests responded to by this memory
system.physmem.num_writes::switch_cpus13.dtb.walker            0                       # Number of write requests responded to by this memory
system.physmem.num_writes::switch_cpus13.itb.walker            0                       # Number of write requests responded to by this memory
system.physmem.num_writes::switch_cpus13.inst            0                       # Number of write requests responded to by this memory
system.physmem.num_writes::switch_cpus13.data            0                       # Number of write requests responded to by this memory
system.physmem.num_writes::switch_cpus14.dtb.walker            0                       # Number of write requests responded to by this memory
system.physmem.num_writes::switch_cpus14.itb.walker            0                       # Number of write requests responded to by this memory
system.physmem.num_writes::switch_cpus14.inst            0                       # Number of write requests responded to by this memory
system.physmem.num_writes::switch_cpus14.data            0                       # Number of write requests responded to by this memory
system.physmem.num_writes::switch_cpus15.dtb.walker            0                       # Number of write requests responded to by this memory
system.physmem.num_writes::switch_cpus15.itb.walker            0                       # Number of write requests responded to by this memory
system.physmem.num_writes::switch_cpus15.inst            0                       # Number of write requests responded to by this memory
system.physmem.num_writes::switch_cpus15.data            0                       # Number of write requests responded to by this memory
system.physmem.num_writes::cpu00.dtb.walker            0                       # Number of write requests responded to by this memory
system.physmem.num_writes::cpu00.itb.walker            0                       # Number of write requests responded to by this memory
system.physmem.num_writes::cpu00.inst               0                       # Number of write requests responded to by this memory
system.physmem.num_writes::cpu00.data               0                       # Number of write requests responded to by this memory
system.physmem.num_writes::cpu01.dtb.walker            0                       # Number of write requests responded to by this memory
system.physmem.num_writes::cpu01.itb.walker            0                       # Number of write requests responded to by this memory
system.physmem.num_writes::cpu01.inst               0                       # Number of write requests responded to by this memory
system.physmem.num_writes::cpu01.data               0                       # Number of write requests responded to by this memory
system.physmem.num_writes::cpu02.dtb.walker            0                       # Number of write requests responded to by this memory
system.physmem.num_writes::cpu02.itb.walker            0                       # Number of write requests responded to by this memory
system.physmem.num_writes::cpu02.inst               0                       # Number of write requests responded to by this memory
system.physmem.num_writes::cpu02.data               0                       # Number of write requests responded to by this memory
system.physmem.num_writes::cpu03.dtb.walker            0                       # Number of write requests responded to by this memory
system.physmem.num_writes::cpu03.itb.walker            0                       # Number of write requests responded to by this memory
system.physmem.num_writes::cpu03.inst               0                       # Number of write requests responded to by this memory
system.physmem.num_writes::cpu03.data               0                       # Number of write requests responded to by this memory
system.physmem.num_writes::cpu04.dtb.walker            0                       # Number of write requests responded to by this memory
system.physmem.num_writes::cpu04.itb.walker            0                       # Number of write requests responded to by this memory
system.physmem.num_writes::cpu04.inst               0                       # Number of write requests responded to by this memory
system.physmem.num_writes::cpu04.data               0                       # Number of write requests responded to by this memory
system.physmem.num_writes::cpu05.dtb.walker            0                       # Number of write requests responded to by this memory
system.physmem.num_writes::cpu05.itb.walker            0                       # Number of write requests responded to by this memory
system.physmem.num_writes::cpu05.inst               0                       # Number of write requests responded to by this memory
system.physmem.num_writes::cpu05.data               0                       # Number of write requests responded to by this memory
system.physmem.num_writes::cpu06.dtb.walker            0                       # Number of write requests responded to by this memory
system.physmem.num_writes::cpu06.itb.walker            0                       # Number of write requests responded to by this memory
system.physmem.num_writes::cpu06.inst               0                       # Number of write requests responded to by this memory
system.physmem.num_writes::cpu06.data               0                       # Number of write requests responded to by this memory
system.physmem.num_writes::cpu07.dtb.walker            0                       # Number of write requests responded to by this memory
system.physmem.num_writes::cpu07.itb.walker            0                       # Number of write requests responded to by this memory
system.physmem.num_writes::cpu07.inst               0                       # Number of write requests responded to by this memory
system.physmem.num_writes::cpu07.data               0                       # Number of write requests responded to by this memory
system.physmem.num_writes::cpu08.dtb.walker            0                       # Number of write requests responded to by this memory
system.physmem.num_writes::cpu08.itb.walker            0                       # Number of write requests responded to by this memory
system.physmem.num_writes::cpu08.inst               0                       # Number of write requests responded to by this memory
system.physmem.num_writes::cpu08.data               0                       # Number of write requests responded to by this memory
system.physmem.num_writes::cpu09.dtb.walker            0                       # Number of write requests responded to by this memory
system.physmem.num_writes::cpu09.itb.walker            0                       # Number of write requests responded to by this memory
system.physmem.num_writes::cpu09.inst               0                       # Number of write requests responded to by this memory
system.physmem.num_writes::cpu09.data               0                       # Number of write requests responded to by this memory
system.physmem.num_writes::cpu10.dtb.walker            0                       # Number of write requests responded to by this memory
system.physmem.num_writes::cpu10.itb.walker            0                       # Number of write requests responded to by this memory
system.physmem.num_writes::cpu10.inst               0                       # Number of write requests responded to by this memory
system.physmem.num_writes::cpu10.data               0                       # Number of write requests responded to by this memory
system.physmem.num_writes::cpu11.dtb.walker            0                       # Number of write requests responded to by this memory
system.physmem.num_writes::cpu11.itb.walker            0                       # Number of write requests responded to by this memory
system.physmem.num_writes::cpu11.inst               0                       # Number of write requests responded to by this memory
system.physmem.num_writes::cpu11.data               0                       # Number of write requests responded to by this memory
system.physmem.num_writes::cpu12.dtb.walker            0                       # Number of write requests responded to by this memory
system.physmem.num_writes::cpu12.itb.walker            0                       # Number of write requests responded to by this memory
system.physmem.num_writes::cpu12.inst               0                       # Number of write requests responded to by this memory
system.physmem.num_writes::cpu12.data               0                       # Number of write requests responded to by this memory
system.physmem.num_writes::cpu13.dtb.walker            0                       # Number of write requests responded to by this memory
system.physmem.num_writes::cpu13.itb.walker            0                       # Number of write requests responded to by this memory
system.physmem.num_writes::cpu13.inst               0                       # Number of write requests responded to by this memory
system.physmem.num_writes::cpu13.data               0                       # Number of write requests responded to by this memory
system.physmem.num_writes::cpu14.dtb.walker            0                       # Number of write requests responded to by this memory
system.physmem.num_writes::cpu14.itb.walker            0                       # Number of write requests responded to by this memory
system.physmem.num_writes::cpu14.inst               0                       # Number of write requests responded to by this memory
system.physmem.num_writes::cpu14.data               0                       # Number of write requests responded to by this memory
system.physmem.num_writes::cpu15.dtb.walker            0                       # Number of write requests responded to by this memory
system.physmem.num_writes::cpu15.itb.walker            0                       # Number of write requests responded to by this memory
system.physmem.num_writes::cpu15.inst               0                       # Number of write requests responded to by this memory
system.physmem.num_writes::cpu15.data               0                       # Number of write requests responded to by this memory
system.physmem.num_writes::total                86087                       # Number of write requests responded to by this memory
system.physmem.bw_read::switch_cpus00.inst        48944                       # Total read bandwidth from this memory (bytes/s)
system.physmem.bw_read::switch_cpus00.data     17446176                       # Total read bandwidth from this memory (bytes/s)
system.physmem.bw_read::switch_cpus01.inst        41603                       # Total read bandwidth from this memory (bytes/s)
system.physmem.bw_read::switch_cpus01.data     23879897                       # Total read bandwidth from this memory (bytes/s)
system.physmem.bw_read::switch_cpus02.inst        46497                       # Total read bandwidth from this memory (bytes/s)
system.physmem.bw_read::switch_cpus02.data     24327737                       # Total read bandwidth from this memory (bytes/s)
system.physmem.bw_read::switch_cpus03.inst        48944                       # Total read bandwidth from this memory (bytes/s)
system.physmem.bw_read::switch_cpus03.data     13602829                       # Total read bandwidth from this memory (bytes/s)
system.physmem.bw_read::switch_cpus04.inst        41603                       # Total read bandwidth from this memory (bytes/s)
system.physmem.bw_read::switch_cpus04.data     23580113                       # Total read bandwidth from this memory (bytes/s)
system.physmem.bw_read::switch_cpus05.inst        45273                       # Total read bandwidth from this memory (bytes/s)
system.physmem.bw_read::switch_cpus05.data     23078435                       # Total read bandwidth from this memory (bytes/s)
system.physmem.bw_read::switch_cpus06.inst        48944                       # Total read bandwidth from this memory (bytes/s)
system.physmem.bw_read::switch_cpus06.data     38941264                       # Total read bandwidth from this memory (bytes/s)
system.physmem.bw_read::switch_cpus07.inst        48944                       # Total read bandwidth from this memory (bytes/s)
system.physmem.bw_read::switch_cpus07.data     24218836                       # Total read bandwidth from this memory (bytes/s)
system.physmem.bw_read::switch_cpus08.inst        47721                       # Total read bandwidth from this memory (bytes/s)
system.physmem.bw_read::switch_cpus08.data     34389450                       # Total read bandwidth from this memory (bytes/s)
system.physmem.bw_read::switch_cpus09.inst        46497                       # Total read bandwidth from this memory (bytes/s)
system.physmem.bw_read::switch_cpus09.data     17419257                       # Total read bandwidth from this memory (bytes/s)
system.physmem.bw_read::switch_cpus10.inst        51391                       # Total read bandwidth from this memory (bytes/s)
system.physmem.bw_read::switch_cpus10.data     39846733                       # Total read bandwidth from this memory (bytes/s)
system.physmem.bw_read::switch_cpus11.inst        41603                       # Total read bandwidth from this memory (bytes/s)
system.physmem.bw_read::switch_cpus11.data     23301131                       # Total read bandwidth from this memory (bytes/s)
system.physmem.bw_read::switch_cpus12.inst        42826                       # Total read bandwidth from this memory (bytes/s)
system.physmem.bw_read::switch_cpus12.data     13218617                       # Total read bandwidth from this memory (bytes/s)
system.physmem.bw_read::switch_cpus13.inst        50168                       # Total read bandwidth from this memory (bytes/s)
system.physmem.bw_read::switch_cpus13.data     16823360                       # Total read bandwidth from this memory (bytes/s)
system.physmem.bw_read::switch_cpus14.inst        41603                       # Total read bandwidth from this memory (bytes/s)
system.physmem.bw_read::switch_cpus14.data     23367206                       # Total read bandwidth from this memory (bytes/s)
system.physmem.bw_read::switch_cpus15.inst        41603                       # Total read bandwidth from this memory (bytes/s)
system.physmem.bw_read::switch_cpus15.data     23719604                       # Total read bandwidth from this memory (bytes/s)
system.physmem.bw_read::total               381894808                       # Total read bandwidth from this memory (bytes/s)
system.physmem.bw_inst_read::switch_cpus00.inst        48944                       # Instruction read bandwidth from this memory (bytes/s)
system.physmem.bw_inst_read::switch_cpus01.inst        41603                       # Instruction read bandwidth from this memory (bytes/s)
system.physmem.bw_inst_read::switch_cpus02.inst        46497                       # Instruction read bandwidth from this memory (bytes/s)
system.physmem.bw_inst_read::switch_cpus03.inst        48944                       # Instruction read bandwidth from this memory (bytes/s)
system.physmem.bw_inst_read::switch_cpus04.inst        41603                       # Instruction read bandwidth from this memory (bytes/s)
system.physmem.bw_inst_read::switch_cpus05.inst        45273                       # Instruction read bandwidth from this memory (bytes/s)
system.physmem.bw_inst_read::switch_cpus06.inst        48944                       # Instruction read bandwidth from this memory (bytes/s)
system.physmem.bw_inst_read::switch_cpus07.inst        48944                       # Instruction read bandwidth from this memory (bytes/s)
system.physmem.bw_inst_read::switch_cpus08.inst        47721                       # Instruction read bandwidth from this memory (bytes/s)
system.physmem.bw_inst_read::switch_cpus09.inst        46497                       # Instruction read bandwidth from this memory (bytes/s)
system.physmem.bw_inst_read::switch_cpus10.inst        51391                       # Instruction read bandwidth from this memory (bytes/s)
system.physmem.bw_inst_read::switch_cpus11.inst        41603                       # Instruction read bandwidth from this memory (bytes/s)
system.physmem.bw_inst_read::switch_cpus12.inst        42826                       # Instruction read bandwidth from this memory (bytes/s)
system.physmem.bw_inst_read::switch_cpus13.inst        50168                       # Instruction read bandwidth from this memory (bytes/s)
system.physmem.bw_inst_read::switch_cpus14.inst        41603                       # Instruction read bandwidth from this memory (bytes/s)
system.physmem.bw_inst_read::switch_cpus15.inst        41603                       # Instruction read bandwidth from this memory (bytes/s)
system.physmem.bw_inst_read::total             734164                       # Instruction read bandwidth from this memory (bytes/s)
system.physmem.bw_write::writebacks         105336579                       # Write bandwidth from this memory (bytes/s)
system.physmem.bw_write::total              105336579                       # Write bandwidth from this memory (bytes/s)
system.physmem.bw_total::writebacks         105336579                       # Total bandwidth to/from this memory (bytes/s)
system.physmem.bw_total::switch_cpus00.inst        48944                       # Total bandwidth to/from this memory (bytes/s)
system.physmem.bw_total::switch_cpus00.data     17446176                       # Total bandwidth to/from this memory (bytes/s)
system.physmem.bw_total::switch_cpus01.inst        41603                       # Total bandwidth to/from this memory (bytes/s)
system.physmem.bw_total::switch_cpus01.data     23879897                       # Total bandwidth to/from this memory (bytes/s)
system.physmem.bw_total::switch_cpus02.inst        46497                       # Total bandwidth to/from this memory (bytes/s)
system.physmem.bw_total::switch_cpus02.data     24327737                       # Total bandwidth to/from this memory (bytes/s)
system.physmem.bw_total::switch_cpus03.inst        48944                       # Total bandwidth to/from this memory (bytes/s)
system.physmem.bw_total::switch_cpus03.data     13602829                       # Total bandwidth to/from this memory (bytes/s)
system.physmem.bw_total::switch_cpus04.inst        41603                       # Total bandwidth to/from this memory (bytes/s)
system.physmem.bw_total::switch_cpus04.data     23580113                       # Total bandwidth to/from this memory (bytes/s)
system.physmem.bw_total::switch_cpus05.inst        45273                       # Total bandwidth to/from this memory (bytes/s)
system.physmem.bw_total::switch_cpus05.data     23078435                       # Total bandwidth to/from this memory (bytes/s)
system.physmem.bw_total::switch_cpus06.inst        48944                       # Total bandwidth to/from this memory (bytes/s)
system.physmem.bw_total::switch_cpus06.data     38941264                       # Total bandwidth to/from this memory (bytes/s)
system.physmem.bw_total::switch_cpus07.inst        48944                       # Total bandwidth to/from this memory (bytes/s)
system.physmem.bw_total::switch_cpus07.data     24218836                       # Total bandwidth to/from this memory (bytes/s)
system.physmem.bw_total::switch_cpus08.inst        47721                       # Total bandwidth to/from this memory (bytes/s)
system.physmem.bw_total::switch_cpus08.data     34389450                       # Total bandwidth to/from this memory (bytes/s)
system.physmem.bw_total::switch_cpus09.inst        46497                       # Total bandwidth to/from this memory (bytes/s)
system.physmem.bw_total::switch_cpus09.data     17419257                       # Total bandwidth to/from this memory (bytes/s)
system.physmem.bw_total::switch_cpus10.inst        51391                       # Total bandwidth to/from this memory (bytes/s)
system.physmem.bw_total::switch_cpus10.data     39846733                       # Total bandwidth to/from this memory (bytes/s)
system.physmem.bw_total::switch_cpus11.inst        41603                       # Total bandwidth to/from this memory (bytes/s)
system.physmem.bw_total::switch_cpus11.data     23301131                       # Total bandwidth to/from this memory (bytes/s)
system.physmem.bw_total::switch_cpus12.inst        42826                       # Total bandwidth to/from this memory (bytes/s)
system.physmem.bw_total::switch_cpus12.data     13218617                       # Total bandwidth to/from this memory (bytes/s)
system.physmem.bw_total::switch_cpus13.inst        50168                       # Total bandwidth to/from this memory (bytes/s)
system.physmem.bw_total::switch_cpus13.data     16823360                       # Total bandwidth to/from this memory (bytes/s)
system.physmem.bw_total::switch_cpus14.inst        41603                       # Total bandwidth to/from this memory (bytes/s)
system.physmem.bw_total::switch_cpus14.data     23367206                       # Total bandwidth to/from this memory (bytes/s)
system.physmem.bw_total::switch_cpus15.inst        41603                       # Total bandwidth to/from this memory (bytes/s)
system.physmem.bw_total::switch_cpus15.data     23719604                       # Total bandwidth to/from this memory (bytes/s)
system.physmem.bw_total::total              487231387                       # Total bandwidth to/from this memory (bytes/s)
system.switch_cpus00.dtb.inst_hits                  0                       # ITB inst hits
system.switch_cpus00.dtb.inst_misses                0                       # ITB inst misses
system.switch_cpus00.dtb.read_hits                  0                       # DTB read hits
system.switch_cpus00.dtb.read_misses                0                       # DTB read misses
system.switch_cpus00.dtb.write_hits                 0                       # DTB write hits
system.switch_cpus00.dtb.write_misses               0                       # DTB write misses
system.switch_cpus00.dtb.flush_tlb                  0                       # Number of times complete TLB was flushed
system.switch_cpus00.dtb.flush_tlb_mva              0                       # Number of times TLB was flushed by MVA
system.switch_cpus00.dtb.flush_tlb_mva_asid            0                       # Number of times TLB was flushed by MVA & ASID
system.switch_cpus00.dtb.flush_tlb_asid             0                       # Number of times TLB was flushed by ASID
system.switch_cpus00.dtb.flush_entries              0                       # Number of entries that have been flushed from TLB
system.switch_cpus00.dtb.align_faults               0                       # Number of TLB faults due to alignment restrictions
system.switch_cpus00.dtb.prefetch_faults            0                       # Number of TLB faults due to prefetch
system.switch_cpus00.dtb.domain_faults              0                       # Number of TLB faults due to domain restrictions
system.switch_cpus00.dtb.perms_faults               0                       # Number of TLB faults due to permissions restrictions
system.switch_cpus00.dtb.read_accesses              0                       # DTB read accesses
system.switch_cpus00.dtb.write_accesses             0                       # DTB write accesses
system.switch_cpus00.dtb.inst_accesses              0                       # ITB inst accesses
system.switch_cpus00.dtb.hits                       0                       # DTB hits
system.switch_cpus00.dtb.misses                     0                       # DTB misses
system.switch_cpus00.dtb.accesses                   0                       # DTB accesses
system.switch_cpus00.itb.inst_hits                  0                       # ITB inst hits
system.switch_cpus00.itb.inst_misses                0                       # ITB inst misses
system.switch_cpus00.itb.read_hits                  0                       # DTB read hits
system.switch_cpus00.itb.read_misses                0                       # DTB read misses
system.switch_cpus00.itb.write_hits                 0                       # DTB write hits
system.switch_cpus00.itb.write_misses               0                       # DTB write misses
system.switch_cpus00.itb.flush_tlb                  0                       # Number of times complete TLB was flushed
system.switch_cpus00.itb.flush_tlb_mva              0                       # Number of times TLB was flushed by MVA
system.switch_cpus00.itb.flush_tlb_mva_asid            0                       # Number of times TLB was flushed by MVA & ASID
system.switch_cpus00.itb.flush_tlb_asid             0                       # Number of times TLB was flushed by ASID
system.switch_cpus00.itb.flush_entries              0                       # Number of entries that have been flushed from TLB
system.switch_cpus00.itb.align_faults               0                       # Number of TLB faults due to alignment restrictions
system.switch_cpus00.itb.prefetch_faults            0                       # Number of TLB faults due to prefetch
system.switch_cpus00.itb.domain_faults              0                       # Number of TLB faults due to domain restrictions
system.switch_cpus00.itb.perms_faults               0                       # Number of TLB faults due to permissions restrictions
system.switch_cpus00.itb.read_accesses              0                       # DTB read accesses
system.switch_cpus00.itb.write_accesses             0                       # DTB write accesses
system.switch_cpus00.itb.inst_accesses              0                       # ITB inst accesses
system.switch_cpus00.itb.hits                       0                       # DTB hits
system.switch_cpus00.itb.misses                     0                       # DTB misses
system.switch_cpus00.itb.accesses                   0                       # DTB accesses
system.cpu00.workload.num_syscalls                 53                       # Number of system calls
system.switch_cpus00.numCycles              250860498                       # number of cpu cycles simulated
system.switch_cpus00.numWorkItemsStarted            0                       # number of work items this cpu started
system.switch_cpus00.numWorkItemsCompleted            0                       # number of work items this cpu completed
system.switch_cpus00.BPredUnit.lookups       20645721                       # Number of BP lookups
system.switch_cpus00.BPredUnit.condPredicted     16892487                       # Number of conditional branches predicted
system.switch_cpus00.BPredUnit.condIncorrect      2023797                       # Number of conditional branches incorrect
system.switch_cpus00.BPredUnit.BTBLookups      8695439                       # Number of BTB lookups
system.switch_cpus00.BPredUnit.BTBHits        8141440                       # Number of BTB hits
system.switch_cpus00.BPredUnit.BTBCorrect            0                       # Number of correct BTB predictions (this stat may not work properly.
system.switch_cpus00.BPredUnit.usedRAS        2136214                       # Number of times the RAS was used to get a target.
system.switch_cpus00.BPredUnit.RASInCorrect        92295                       # Number of incorrect RAS predictions.
system.switch_cpus00.fetch.icacheStallCycles    199131494                       # Number of cycles fetch is stalled on an Icache miss
system.switch_cpus00.fetch.Insts            115387774                       # Number of instructions fetch has processed
system.switch_cpus00.fetch.Branches          20645721                       # Number of branches that fetch encountered
system.switch_cpus00.fetch.predictedBranches     10277654                       # Number of branches that fetch has predicted taken
system.switch_cpus00.fetch.Cycles            24104921                       # Number of cycles fetch has run and was not squashing or blocked
system.switch_cpus00.fetch.SquashCycles       5498356                       # Number of cycles fetch has spent squashing
system.switch_cpus00.fetch.BlockedCycles      4704684                       # Number of cycles fetch has spent blocked
system.switch_cpus00.fetch.CacheLines        12182434                       # Number of cache lines fetched
system.switch_cpus00.fetch.IcacheSquashes      2025347                       # Number of outstanding Icache misses that were squashed
system.switch_cpus00.fetch.rateDist::samples    231389415                       # Number of instructions fetched each cycle (Total)
system.switch_cpus00.fetch.rateDist::mean     0.612513                       # Number of instructions fetched each cycle (Total)
system.switch_cpus00.fetch.rateDist::stdev     1.954101                       # Number of instructions fetched each cycle (Total)
system.switch_cpus00.fetch.rateDist::underflows            0      0.00%      0.00% # Number of instructions fetched each cycle (Total)
system.switch_cpus00.fetch.rateDist::0      207284494     89.58%     89.58% # Number of instructions fetched each cycle (Total)
system.switch_cpus00.fetch.rateDist::1        1128122      0.49%     90.07% # Number of instructions fetched each cycle (Total)
system.switch_cpus00.fetch.rateDist::2        1788949      0.77%     90.84% # Number of instructions fetched each cycle (Total)
system.switch_cpus00.fetch.rateDist::3        2421223      1.05%     91.89% # Number of instructions fetched each cycle (Total)
system.switch_cpus00.fetch.rateDist::4        2488124      1.08%     92.96% # Number of instructions fetched each cycle (Total)
system.switch_cpus00.fetch.rateDist::5        2104554      0.91%     93.87% # Number of instructions fetched each cycle (Total)
system.switch_cpus00.fetch.rateDist::6        1178258      0.51%     94.38% # Number of instructions fetched each cycle (Total)
system.switch_cpus00.fetch.rateDist::7        1751093      0.76%     95.14% # Number of instructions fetched each cycle (Total)
system.switch_cpus00.fetch.rateDist::8       11244598      4.86%    100.00% # Number of instructions fetched each cycle (Total)
system.switch_cpus00.fetch.rateDist::overflows            0      0.00%    100.00% # Number of instructions fetched each cycle (Total)
system.switch_cpus00.fetch.rateDist::min_value            0                       # Number of instructions fetched each cycle (Total)
system.switch_cpus00.fetch.rateDist::max_value            8                       # Number of instructions fetched each cycle (Total)
system.switch_cpus00.fetch.rateDist::total    231389415                       # Number of instructions fetched each cycle (Total)
system.switch_cpus00.fetch.branchRate        0.082300                       # Number of branch fetches per cycle
system.switch_cpus00.fetch.rate              0.459968                       # Number of inst fetches per cycle
system.switch_cpus00.decode.IdleCycles      197108705                       # Number of cycles decode is idle
system.switch_cpus00.decode.BlockedCycles      6744468                       # Number of cycles decode is blocked
system.switch_cpus00.decode.RunCycles        24062171                       # Number of cycles decode is running
system.switch_cpus00.decode.UnblockCycles        26127                       # Number of cycles decode is unblocking
system.switch_cpus00.decode.SquashCycles      3447939                       # Number of cycles decode is squashing
system.switch_cpus00.decode.BranchResolved      3398390                       # Number of times decode resolved a branch
system.switch_cpus00.decode.BranchMispred          378                       # Number of times decode detected a branch misprediction
system.switch_cpus00.decode.DecodedInsts    141622644                       # Number of instructions handled by decode
system.switch_cpus00.decode.SquashedInsts         1984                       # Number of squashed instructions handled by decode
system.switch_cpus00.rename.SquashCycles      3447939                       # Number of cycles rename is squashing
system.switch_cpus00.rename.IdleCycles      197648279                       # Number of cycles rename is idle
system.switch_cpus00.rename.BlockCycles       1396281                       # Number of cycles rename is blocking
system.switch_cpus00.rename.serializeStallCycles      4112734                       # count of cycles rename stalled for serializing inst
system.switch_cpus00.rename.RunCycles        23555862                       # Number of cycles rename is running
system.switch_cpus00.rename.UnblockCycles      1228315                       # Number of cycles rename is unblocking
system.switch_cpus00.rename.RenamedInsts    141571977                       # Number of instructions processed by rename
system.switch_cpus00.rename.ROBFullEvents          177                       # Number of times rename has blocked due to ROB full
system.switch_cpus00.rename.IQFullEvents       167602                       # Number of times rename has blocked due to IQ full
system.switch_cpus00.rename.LSQFullEvents       535677                       # Number of times rename has blocked due to LSQ full
system.switch_cpus00.rename.RenamedOperands    197560794                       # Number of destination operands rename has renamed
system.switch_cpus00.rename.RenameLookups    658586523                       # Number of register rename lookups that rename has made
system.switch_cpus00.rename.int_rename_lookups    658586523                       # Number of integer rename lookups
system.switch_cpus00.rename.CommittedMaps    171545509                       # Number of HB maps that are committed
system.switch_cpus00.rename.UndoneMaps       26015259                       # Number of HB maps that are undone due to squashing
system.switch_cpus00.rename.serializingInsts        35500                       # count of serializing insts renamed
system.switch_cpus00.rename.tempSerializingInsts        18635                       # count of temporary serializing insts renamed
system.switch_cpus00.rename.skidInsts         3672415                       # count of insts added to the skid buffer
system.switch_cpus00.memDep0.insertedLoads     13267866                       # Number of loads inserted to the mem dependence unit.
system.switch_cpus00.memDep0.insertedStores      7184659                       # Number of stores inserted to the mem dependence unit.
system.switch_cpus00.memDep0.conflictingLoads        84380                       # Number of conflicting loads.
system.switch_cpus00.memDep0.conflictingStores      1642086                       # Number of conflicting stores.
system.switch_cpus00.iq.iqInstsAdded        141405587                       # Number of instructions added to the IQ (excludes non-spec)
system.switch_cpus00.iq.iqNonSpecInstsAdded        35618                       # Number of non-speculative instructions added to the IQ
system.switch_cpus00.iq.iqInstsIssued       134413736                       # Number of instructions issued
system.switch_cpus00.iq.iqSquashedInstsIssued        18408                       # Number of squashed instructions issued
system.switch_cpus00.iq.iqSquashedInstsExamined     15438950                       # Number of squashed instructions iterated over during squash; mainly for profiling
system.switch_cpus00.iq.iqSquashedOperandsExamined     36797111                       # Number of squashed operands that are examined and possibly removed from graph
system.switch_cpus00.iq.iqSquashedNonSpecRemoved         1610                       # Number of squashed non-spec instructions that were removed
system.switch_cpus00.iq.issued_per_cycle::samples    231389415                       # Number of insts issued each cycle
system.switch_cpus00.iq.issued_per_cycle::mean     0.580898                       # Number of insts issued each cycle
system.switch_cpus00.iq.issued_per_cycle::stdev     1.272117                       # Number of insts issued each cycle
system.switch_cpus00.iq.issued_per_cycle::underflows            0      0.00%      0.00% # Number of insts issued each cycle
system.switch_cpus00.iq.issued_per_cycle::0    174535192     75.43%     75.43% # Number of insts issued each cycle
system.switch_cpus00.iq.issued_per_cycle::1     23357667     10.09%     85.52% # Number of insts issued each cycle
system.switch_cpus00.iq.issued_per_cycle::2     11842862      5.12%     90.64% # Number of insts issued each cycle
system.switch_cpus00.iq.issued_per_cycle::3      8947573      3.87%     94.51% # Number of insts issued each cycle
system.switch_cpus00.iq.issued_per_cycle::4      7025609      3.04%     97.55% # Number of insts issued each cycle
system.switch_cpus00.iq.issued_per_cycle::5      2836708      1.23%     98.77% # Number of insts issued each cycle
system.switch_cpus00.iq.issued_per_cycle::6      1788636      0.77%     99.54% # Number of insts issued each cycle
system.switch_cpus00.iq.issued_per_cycle::7       931510      0.40%     99.95% # Number of insts issued each cycle
system.switch_cpus00.iq.issued_per_cycle::8       123658      0.05%    100.00% # Number of insts issued each cycle
system.switch_cpus00.iq.issued_per_cycle::overflows            0      0.00%    100.00% # Number of insts issued each cycle
system.switch_cpus00.iq.issued_per_cycle::min_value            0                       # Number of insts issued each cycle
system.switch_cpus00.iq.issued_per_cycle::max_value            8                       # Number of insts issued each cycle
system.switch_cpus00.iq.issued_per_cycle::total    231389415                       # Number of insts issued each cycle
system.switch_cpus00.iq.fu_full::No_OpClass            0      0.00%      0.00% # attempts to use FU when none available
system.switch_cpus00.iq.fu_full::IntAlu         25044     11.21%     11.21% # attempts to use FU when none available
system.switch_cpus00.iq.fu_full::IntMult            0      0.00%     11.21% # attempts to use FU when none available
system.switch_cpus00.iq.fu_full::IntDiv             0      0.00%     11.21% # attempts to use FU when none available
system.switch_cpus00.iq.fu_full::FloatAdd            0      0.00%     11.21% # attempts to use FU when none available
system.switch_cpus00.iq.fu_full::FloatCmp            0      0.00%     11.21% # attempts to use FU when none available
system.switch_cpus00.iq.fu_full::FloatCvt            0      0.00%     11.21% # attempts to use FU when none available
system.switch_cpus00.iq.fu_full::FloatMult            0      0.00%     11.21% # attempts to use FU when none available
system.switch_cpus00.iq.fu_full::FloatDiv            0      0.00%     11.21% # attempts to use FU when none available
system.switch_cpus00.iq.fu_full::FloatSqrt            0      0.00%     11.21% # attempts to use FU when none available
system.switch_cpus00.iq.fu_full::SimdAdd            0      0.00%     11.21% # attempts to use FU when none available
system.switch_cpus00.iq.fu_full::SimdAddAcc            0      0.00%     11.21% # attempts to use FU when none available
system.switch_cpus00.iq.fu_full::SimdAlu            0      0.00%     11.21% # attempts to use FU when none available
system.switch_cpus00.iq.fu_full::SimdCmp            0      0.00%     11.21% # attempts to use FU when none available
system.switch_cpus00.iq.fu_full::SimdCvt            0      0.00%     11.21% # attempts to use FU when none available
system.switch_cpus00.iq.fu_full::SimdMisc            0      0.00%     11.21% # attempts to use FU when none available
system.switch_cpus00.iq.fu_full::SimdMult            0      0.00%     11.21% # attempts to use FU when none available
system.switch_cpus00.iq.fu_full::SimdMultAcc            0      0.00%     11.21% # attempts to use FU when none available
system.switch_cpus00.iq.fu_full::SimdShift            0      0.00%     11.21% # attempts to use FU when none available
system.switch_cpus00.iq.fu_full::SimdShiftAcc            0      0.00%     11.21% # attempts to use FU when none available
system.switch_cpus00.iq.fu_full::SimdSqrt            0      0.00%     11.21% # attempts to use FU when none available
system.switch_cpus00.iq.fu_full::SimdFloatAdd            0      0.00%     11.21% # attempts to use FU when none available
system.switch_cpus00.iq.fu_full::SimdFloatAlu            0      0.00%     11.21% # attempts to use FU when none available
system.switch_cpus00.iq.fu_full::SimdFloatCmp            0      0.00%     11.21% # attempts to use FU when none available
system.switch_cpus00.iq.fu_full::SimdFloatCvt            0      0.00%     11.21% # attempts to use FU when none available
system.switch_cpus00.iq.fu_full::SimdFloatDiv            0      0.00%     11.21% # attempts to use FU when none available
system.switch_cpus00.iq.fu_full::SimdFloatMisc            0      0.00%     11.21% # attempts to use FU when none available
system.switch_cpus00.iq.fu_full::SimdFloatMult            0      0.00%     11.21% # attempts to use FU when none available
system.switch_cpus00.iq.fu_full::SimdFloatMultAcc            0      0.00%     11.21% # attempts to use FU when none available
system.switch_cpus00.iq.fu_full::SimdFloatSqrt            0      0.00%     11.21% # attempts to use FU when none available
system.switch_cpus00.iq.fu_full::MemRead        81837     36.62%     47.83% # attempts to use FU when none available
system.switch_cpus00.iq.fu_full::MemWrite       116595     52.17%    100.00% # attempts to use FU when none available
system.switch_cpus00.iq.fu_full::IprAccess            0      0.00%    100.00% # attempts to use FU when none available
system.switch_cpus00.iq.fu_full::InstPrefetch            0      0.00%    100.00% # attempts to use FU when none available
system.switch_cpus00.iq.FU_type_0::No_OpClass            0      0.00%      0.00% # Type of FU issued
system.switch_cpus00.iq.FU_type_0::IntAlu    113049999     84.11%     84.11% # Type of FU issued
system.switch_cpus00.iq.FU_type_0::IntMult      2001635      1.49%     85.60% # Type of FU issued
system.switch_cpus00.iq.FU_type_0::IntDiv            0      0.00%     85.60% # Type of FU issued
system.switch_cpus00.iq.FU_type_0::FloatAdd            0      0.00%     85.60% # Type of FU issued
system.switch_cpus00.iq.FU_type_0::FloatCmp            0      0.00%     85.60% # Type of FU issued
system.switch_cpus00.iq.FU_type_0::FloatCvt            0      0.00%     85.60% # Type of FU issued
system.switch_cpus00.iq.FU_type_0::FloatMult            0      0.00%     85.60% # Type of FU issued
system.switch_cpus00.iq.FU_type_0::FloatDiv            0      0.00%     85.60% # Type of FU issued
system.switch_cpus00.iq.FU_type_0::FloatSqrt            0      0.00%     85.60% # Type of FU issued
system.switch_cpus00.iq.FU_type_0::SimdAdd            0      0.00%     85.60% # Type of FU issued
system.switch_cpus00.iq.FU_type_0::SimdAddAcc            0      0.00%     85.60% # Type of FU issued
system.switch_cpus00.iq.FU_type_0::SimdAlu            0      0.00%     85.60% # Type of FU issued
system.switch_cpus00.iq.FU_type_0::SimdCmp            0      0.00%     85.60% # Type of FU issued
system.switch_cpus00.iq.FU_type_0::SimdCvt            0      0.00%     85.60% # Type of FU issued
system.switch_cpus00.iq.FU_type_0::SimdMisc            0      0.00%     85.60% # Type of FU issued
system.switch_cpus00.iq.FU_type_0::SimdMult            0      0.00%     85.60% # Type of FU issued
system.switch_cpus00.iq.FU_type_0::SimdMultAcc            0      0.00%     85.60% # Type of FU issued
system.switch_cpus00.iq.FU_type_0::SimdShift            0      0.00%     85.60% # Type of FU issued
system.switch_cpus00.iq.FU_type_0::SimdShiftAcc            0      0.00%     85.60% # Type of FU issued
system.switch_cpus00.iq.FU_type_0::SimdSqrt            0      0.00%     85.60% # Type of FU issued
system.switch_cpus00.iq.FU_type_0::SimdFloatAdd            0      0.00%     85.60% # Type of FU issued
system.switch_cpus00.iq.FU_type_0::SimdFloatAlu            0      0.00%     85.60% # Type of FU issued
system.switch_cpus00.iq.FU_type_0::SimdFloatCmp            0      0.00%     85.60% # Type of FU issued
system.switch_cpus00.iq.FU_type_0::SimdFloatCvt            0      0.00%     85.60% # Type of FU issued
system.switch_cpus00.iq.FU_type_0::SimdFloatDiv            0      0.00%     85.60% # Type of FU issued
system.switch_cpus00.iq.FU_type_0::SimdFloatMisc        16862      0.01%     85.61% # Type of FU issued
system.switch_cpus00.iq.FU_type_0::SimdFloatMult            0      0.00%     85.61% # Type of FU issued
system.switch_cpus00.iq.FU_type_0::SimdFloatMultAcc            0      0.00%     85.61% # Type of FU issued
system.switch_cpus00.iq.FU_type_0::SimdFloatSqrt            0      0.00%     85.61% # Type of FU issued
system.switch_cpus00.iq.FU_type_0::MemRead     12184006      9.06%     94.67% # Type of FU issued
system.switch_cpus00.iq.FU_type_0::MemWrite      7161234      5.33%    100.00% # Type of FU issued
system.switch_cpus00.iq.FU_type_0::IprAccess            0      0.00%    100.00% # Type of FU issued
system.switch_cpus00.iq.FU_type_0::InstPrefetch            0      0.00%    100.00% # Type of FU issued
system.switch_cpus00.iq.FU_type_0::total    134413736                       # Type of FU issued
system.switch_cpus00.iq.rate                 0.535811                       # Inst issue rate
system.switch_cpus00.iq.fu_busy_cnt            223476                       # FU busy when requested
system.switch_cpus00.iq.fu_busy_rate         0.001663                       # FU busy rate (busy events/executed inst)
system.switch_cpus00.iq.int_inst_queue_reads    500458769                       # Number of integer instruction queue reads
system.switch_cpus00.iq.int_inst_queue_writes    156880694                       # Number of integer instruction queue writes
system.switch_cpus00.iq.int_inst_queue_wakeup_accesses    132387659                       # Number of integer instruction queue wakeup accesses
system.switch_cpus00.iq.fp_inst_queue_reads            0                       # Number of floating instruction queue reads
system.switch_cpus00.iq.fp_inst_queue_writes            0                       # Number of floating instruction queue writes
system.switch_cpus00.iq.fp_inst_queue_wakeup_accesses            0                       # Number of floating instruction queue wakeup accesses
system.switch_cpus00.iq.int_alu_accesses    134637212                       # Number of integer alu accesses
system.switch_cpus00.iq.fp_alu_accesses             0                       # Number of floating point alu accesses
system.switch_cpus00.iew.lsq.thread0.forwLoads       272071                       # Number of loads that had data forwarded from stores
system.switch_cpus00.iew.lsq.thread0.invAddrLoads            0                       # Number of loads ignored due to an invalid address
system.switch_cpus00.iew.lsq.thread0.squashedLoads      2123585                       # Number of loads squashed
system.switch_cpus00.iew.lsq.thread0.ignoredResponses          119                       # Number of memory responses ignored because the instruction is squashed
system.switch_cpus00.iew.lsq.thread0.memOrderViolation          540                       # Number of memory ordering violations
system.switch_cpus00.iew.lsq.thread0.squashedStores        95056                       # Number of stores squashed
system.switch_cpus00.iew.lsq.thread0.invAddrSwpfs            0                       # Number of software prefetches ignored due to an invalid address
system.switch_cpus00.iew.lsq.thread0.blockedLoads            0                       # Number of blocked loads due to partial load-store forwarding
system.switch_cpus00.iew.lsq.thread0.rescheduledLoads            0                       # Number of loads that were rescheduled
system.switch_cpus00.iew.lsq.thread0.cacheBlocked            0                       # Number of times an access to memory failed due to the cache being blocked
system.switch_cpus00.iew.iewIdleCycles              0                       # Number of cycles IEW is idle
system.switch_cpus00.iew.iewSquashCycles      3447939                       # Number of cycles IEW is squashing
system.switch_cpus00.iew.iewBlockCycles       1117356                       # Number of cycles IEW is blocking
system.switch_cpus00.iew.iewUnblockCycles       120309                       # Number of cycles IEW is unblocking
system.switch_cpus00.iew.iewDispatchedInsts    141441346                       # Number of instructions dispatched to IQ
system.switch_cpus00.iew.iewDispSquashedInsts        42327                       # Number of squashed instructions skipped by dispatch
system.switch_cpus00.iew.iewDispLoadInsts     13267866                       # Number of dispatched load instructions
system.switch_cpus00.iew.iewDispStoreInsts      7184659                       # Number of dispatched store instructions
system.switch_cpus00.iew.iewDispNonSpecInsts        18638                       # Number of dispatched non-speculative instructions
system.switch_cpus00.iew.iewIQFullEvents       101666                       # Number of times the IQ has become full, causing a stall
system.switch_cpus00.iew.iewLSQFullEvents           12                       # Number of times the LSQ has become full, causing a stall
system.switch_cpus00.iew.memOrderViolationEvents          540                       # Number of memory order violations
system.switch_cpus00.iew.predictedTakenIncorrect      1180622                       # Number of branches that were predicted taken incorrectly
system.switch_cpus00.iew.predictedNotTakenIncorrect      1132443                       # Number of branches that were predicted not taken incorrectly
system.switch_cpus00.iew.branchMispredicts      2313065                       # Number of branch mispredicts detected at execute
system.switch_cpus00.iew.iewExecutedInsts    132548070                       # Number of executed instructions
system.switch_cpus00.iew.iewExecLoadInsts     11462464                       # Number of load instructions executed
system.switch_cpus00.iew.iewExecSquashedInsts      1865664                       # Number of squashed instructions skipped in execute
system.switch_cpus00.iew.exec_swp                   0                       # number of swp insts executed
system.switch_cpus00.iew.exec_nop                 141                       # number of nop insts executed
system.switch_cpus00.iew.exec_refs           18623427                       # number of memory reference insts executed
system.switch_cpus00.iew.exec_branches       18842510                       # Number of branches executed
system.switch_cpus00.iew.exec_stores          7160963                       # Number of stores executed
system.switch_cpus00.iew.exec_rate           0.528374                       # Inst execution rate
system.switch_cpus00.iew.wb_sent            132387891                       # cumulative count of insts sent to commit
system.switch_cpus00.iew.wb_count           132387659                       # cumulative count of insts written-back
system.switch_cpus00.iew.wb_producers        75997822                       # num instructions producing a value
system.switch_cpus00.iew.wb_consumers       204772133                       # num instructions consuming a value
system.switch_cpus00.iew.wb_penalized               0                       # number of instrctions required to write to 'other' IQ
system.switch_cpus00.iew.wb_rate             0.527734                       # insts written-back per cycle
system.switch_cpus00.iew.wb_fanout           0.371134                       # average fanout of values written-back
system.switch_cpus00.iew.wb_penalized_rate            0                       # fraction of instructions written-back that wrote to 'other' IQ
system.switch_cpus00.commit.commitCommittedInsts    100000006                       # The number of committed instructions
system.switch_cpus00.commit.commitCommittedOps    123048947                       # The number of committed instructions
system.switch_cpus00.commit.commitSquashedInsts     18392419                       # The number of squashed insts skipped by commit
system.switch_cpus00.commit.commitNonSpecStalls        34008                       # The number of times commit has been forced to stall to communicate backwards
system.switch_cpus00.commit.branchMispredicts      2049299                       # The number of times a branch was mispredicted
system.switch_cpus00.commit.committed_per_cycle::samples    227941476                       # Number of insts commited each cycle
system.switch_cpus00.commit.committed_per_cycle::mean     0.539827                       # Number of insts commited each cycle
system.switch_cpus00.commit.committed_per_cycle::stdev     1.389363                       # Number of insts commited each cycle
system.switch_cpus00.commit.committed_per_cycle::underflows            0      0.00%      0.00% # Number of insts commited each cycle
system.switch_cpus00.commit.committed_per_cycle::0    177508562     77.87%     77.87% # Number of insts commited each cycle
system.switch_cpus00.commit.committed_per_cycle::1     24977135     10.96%     88.83% # Number of insts commited each cycle
system.switch_cpus00.commit.committed_per_cycle::2      9456305      4.15%     92.98% # Number of insts commited each cycle
system.switch_cpus00.commit.committed_per_cycle::3      4499095      1.97%     94.95% # Number of insts commited each cycle
system.switch_cpus00.commit.committed_per_cycle::4      3776699      1.66%     96.61% # Number of insts commited each cycle
system.switch_cpus00.commit.committed_per_cycle::5      2177089      0.96%     97.57% # Number of insts commited each cycle
system.switch_cpus00.commit.committed_per_cycle::6      1921269      0.84%     98.41% # Number of insts commited each cycle
system.switch_cpus00.commit.committed_per_cycle::7       860514      0.38%     98.79% # Number of insts commited each cycle
system.switch_cpus00.commit.committed_per_cycle::8      2764808      1.21%    100.00% # Number of insts commited each cycle
system.switch_cpus00.commit.committed_per_cycle::overflows            0      0.00%    100.00% # Number of insts commited each cycle
system.switch_cpus00.commit.committed_per_cycle::min_value            0                       # Number of insts commited each cycle
system.switch_cpus00.commit.committed_per_cycle::max_value            8                       # Number of insts commited each cycle
system.switch_cpus00.commit.committed_per_cycle::total    227941476                       # Number of insts commited each cycle
system.switch_cpus00.commit.committedInsts    100000006                       # Number of instructions committed
system.switch_cpus00.commit.committedOps    123048947                       # Number of ops (including micro ops) committed
system.switch_cpus00.commit.swp_count               0                       # Number of s/w prefetches committed
system.switch_cpus00.commit.refs             18233884                       # Number of memory references committed
system.switch_cpus00.commit.loads            11144281                       # Number of loads committed
system.switch_cpus00.commit.membars             16966                       # Number of memory barriers committed
system.switch_cpus00.commit.branches         17743911                       # Number of branches committed
system.switch_cpus00.commit.fp_insts                0                       # Number of committed floating point instructions.
system.switch_cpus00.commit.int_insts       110865559                       # Number of committed integer instructions.
system.switch_cpus00.commit.function_calls      2533833                       # Number of function calls committed.
system.switch_cpus00.commit.bw_lim_events      2764808                       # number cycles where commit BW limit reached
system.switch_cpus00.commit.bw_limited              0                       # number of insts not committed due to BW limits
system.switch_cpus00.rob.rob_reads          366617345                       # The number of ROB reads
system.switch_cpus00.rob.rob_writes         286330729                       # The number of ROB writes
system.switch_cpus00.timesIdled               3019571                       # Number of times that the entire CPU went into an idle state and unscheduled itself
system.switch_cpus00.idleCycles              19471083                       # Total number of cycles that the CPU has spent unscheduled due to idling
system.switch_cpus00.committedInsts         100000006                       # Number of Instructions Simulated
system.switch_cpus00.committedOps           123048947                       # Number of Ops (including micro ops) Simulated
system.switch_cpus00.committedInsts_total    100000006                       # Number of Instructions Simulated
system.switch_cpus00.cpi                     2.508605                       # CPI: Cycles Per Instruction
system.switch_cpus00.cpi_total               2.508605                       # CPI: Total CPI of All Threads
system.switch_cpus00.ipc                     0.398628                       # IPC: Instructions Per Cycle
system.switch_cpus00.ipc_total               0.398628                       # IPC: Total IPC of All Threads
system.switch_cpus00.int_regfile_reads      596586588                       # number of integer regfile reads
system.switch_cpus00.int_regfile_writes     184422591                       # number of integer regfile writes
system.switch_cpus00.misc_regfile_reads     131275263                       # number of misc regfile reads
system.switch_cpus00.misc_regfile_writes        33978                       # number of misc regfile writes
system.switch_cpus01.dtb.inst_hits                  0                       # ITB inst hits
system.switch_cpus01.dtb.inst_misses                0                       # ITB inst misses
system.switch_cpus01.dtb.read_hits                  0                       # DTB read hits
system.switch_cpus01.dtb.read_misses                0                       # DTB read misses
system.switch_cpus01.dtb.write_hits                 0                       # DTB write hits
system.switch_cpus01.dtb.write_misses               0                       # DTB write misses
system.switch_cpus01.dtb.flush_tlb                  0                       # Number of times complete TLB was flushed
system.switch_cpus01.dtb.flush_tlb_mva              0                       # Number of times TLB was flushed by MVA
system.switch_cpus01.dtb.flush_tlb_mva_asid            0                       # Number of times TLB was flushed by MVA & ASID
system.switch_cpus01.dtb.flush_tlb_asid             0                       # Number of times TLB was flushed by ASID
system.switch_cpus01.dtb.flush_entries              0                       # Number of entries that have been flushed from TLB
system.switch_cpus01.dtb.align_faults               0                       # Number of TLB faults due to alignment restrictions
system.switch_cpus01.dtb.prefetch_faults            0                       # Number of TLB faults due to prefetch
system.switch_cpus01.dtb.domain_faults              0                       # Number of TLB faults due to domain restrictions
system.switch_cpus01.dtb.perms_faults               0                       # Number of TLB faults due to permissions restrictions
system.switch_cpus01.dtb.read_accesses              0                       # DTB read accesses
system.switch_cpus01.dtb.write_accesses             0                       # DTB write accesses
system.switch_cpus01.dtb.inst_accesses              0                       # ITB inst accesses
system.switch_cpus01.dtb.hits                       0                       # DTB hits
system.switch_cpus01.dtb.misses                     0                       # DTB misses
system.switch_cpus01.dtb.accesses                   0                       # DTB accesses
system.switch_cpus01.itb.inst_hits                  0                       # ITB inst hits
[...]
system.cpu15.icache.demand_avg_miss_latency::total 174244.804878                       # average overall miss latency
system.cpu15.icache.overall_avg_miss_latency::switch_cpus15.inst 174244.804878                       # average overall miss latency
system.cpu15.icache.overall_avg_miss_latency::total 174244.804878                       # average overall miss latency
system.cpu15.icache.blocked_cycles::no_mshrs            0                       # number of cycles access was blocked
system.cpu15.icache.blocked_cycles::no_targets            0                       # number of cycles access was blocked
system.cpu15.icache.blocked::no_mshrs               0                       # number of cycles access was blocked
system.cpu15.icache.blocked::no_targets             0                       # number of cycles access was blocked
system.cpu15.icache.avg_blocked_cycles::no_mshrs          nan                       # average number of cycles each access was blocked
system.cpu15.icache.avg_blocked_cycles::no_targets          nan                       # average number of cycles each access was blocked
system.cpu15.icache.fast_writes                     0                       # number of fast writes performed
system.cpu15.icache.cache_copies                    0                       # number of cache copies performed
system.cpu15.icache.ReadReq_mshr_hits::switch_cpus15.inst            6                       # number of ReadReq MSHR hits
system.cpu15.icache.ReadReq_mshr_hits::total            6                       # number of ReadReq MSHR hits
system.cpu15.icache.demand_mshr_hits::switch_cpus15.inst            6                       # number of demand (read+write) MSHR hits
system.cpu15.icache.demand_mshr_hits::total            6                       # number of demand (read+write) MSHR hits
system.cpu15.icache.overall_mshr_hits::switch_cpus15.inst            6                       # number of overall MSHR hits
system.cpu15.icache.overall_mshr_hits::total            6                       # number of overall MSHR hits
system.cpu15.icache.ReadReq_mshr_misses::switch_cpus15.inst           35                       # number of ReadReq MSHR misses
system.cpu15.icache.ReadReq_mshr_misses::total           35                       # number of ReadReq MSHR misses
system.cpu15.icache.demand_mshr_misses::switch_cpus15.inst           35                       # number of demand (read+write) MSHR misses
system.cpu15.icache.demand_mshr_misses::total           35                       # number of demand (read+write) MSHR misses
system.cpu15.icache.overall_mshr_misses::switch_cpus15.inst           35                       # number of overall MSHR misses
system.cpu15.icache.overall_mshr_misses::total           35                       # number of overall MSHR misses
system.cpu15.icache.ReadReq_mshr_miss_latency::switch_cpus15.inst      6197717                       # number of ReadReq MSHR miss cycles
system.cpu15.icache.ReadReq_mshr_miss_latency::total      6197717                       # number of ReadReq MSHR miss cycles
system.cpu15.icache.demand_mshr_miss_latency::switch_cpus15.inst      6197717                       # number of demand (read+write) MSHR miss cycles
system.cpu15.icache.demand_mshr_miss_latency::total      6197717                       # number of demand (read+write) MSHR miss cycles
system.cpu15.icache.overall_mshr_miss_latency::switch_cpus15.inst      6197717                       # number of overall MSHR miss cycles
system.cpu15.icache.overall_mshr_miss_latency::total      6197717                       # number of overall MSHR miss cycles
system.cpu15.icache.ReadReq_mshr_miss_rate::switch_cpus15.inst     0.000003                       # mshr miss rate for ReadReq accesses
system.cpu15.icache.ReadReq_mshr_miss_rate::total     0.000003                       # mshr miss rate for ReadReq accesses
system.cpu15.icache.demand_mshr_miss_rate::switch_cpus15.inst     0.000003                       # mshr miss rate for demand accesses
system.cpu15.icache.demand_mshr_miss_rate::total     0.000003                       # mshr miss rate for demand accesses
system.cpu15.icache.overall_mshr_miss_rate::switch_cpus15.inst     0.000003                       # mshr miss rate for overall accesses
system.cpu15.icache.overall_mshr_miss_rate::total     0.000003                       # mshr miss rate for overall accesses
system.cpu15.icache.ReadReq_avg_mshr_miss_latency::switch_cpus15.inst 177077.628571                       # average ReadReq mshr miss latency
system.cpu15.icache.ReadReq_avg_mshr_miss_latency::total 177077.628571                       # average ReadReq mshr miss latency
system.cpu15.icache.demand_avg_mshr_miss_latency::switch_cpus15.inst 177077.628571                       # average overall mshr miss latency
system.cpu15.icache.demand_avg_mshr_miss_latency::total 177077.628571                       # average overall mshr miss latency
system.cpu15.icache.overall_avg_mshr_miss_latency::switch_cpus15.inst 177077.628571                       # average overall mshr miss latency
system.cpu15.icache.overall_avg_mshr_miss_latency::total 177077.628571                       # average overall mshr miss latency
system.cpu15.icache.no_allocate_misses              0                       # Number of misses that were no-allocate
system.cpu15.dcache.replacements                54403                       # number of replacements
system.cpu15.dcache.tagsinuse                     256                       # Cycle average of tags in use
system.cpu15.dcache.total_refs              224689918                       # Total number of references to valid blocks.
system.cpu15.dcache.sampled_refs                54659                       # Sample count of references to valid blocks.
system.cpu15.dcache.avg_refs              4110.757936                       # Average number of references to valid blocks.
system.cpu15.dcache.warmup_cycle                    0                       # Cycle when the warmup percentage was hit.
system.cpu15.dcache.occ_blocks::switch_cpus15.data   202.210570                       # Average occupied blocks per requestor
system.cpu15.dcache.occ_blocks::cpu15.data    53.789430                       # Average occupied blocks per requestor
system.cpu15.dcache.occ_percent::switch_cpus15.data     0.789885                       # Average percentage of cache occupancy
system.cpu15.dcache.occ_percent::cpu15.data     0.210115                       # Average percentage of cache occupancy
system.cpu15.dcache.occ_percent::total              1                       # Average percentage of cache occupancy
system.cpu15.dcache.ReadReq_hits::switch_cpus15.data     17865513                       # number of ReadReq hits
system.cpu15.dcache.ReadReq_hits::total      17865513                       # number of ReadReq hits
system.cpu15.dcache.WriteReq_hits::switch_cpus15.data      3450311                       # number of WriteReq hits
system.cpu15.dcache.WriteReq_hits::total      3450311                       # number of WriteReq hits
system.cpu15.dcache.LoadLockedReq_hits::switch_cpus15.data         8175                       # number of LoadLockedReq hits
system.cpu15.dcache.LoadLockedReq_hits::total         8175                       # number of LoadLockedReq hits
system.cpu15.dcache.StoreCondReq_hits::switch_cpus15.data         8099                       # number of StoreCondReq hits
system.cpu15.dcache.StoreCondReq_hits::total         8099                       # number of StoreCondReq hits
system.cpu15.dcache.demand_hits::switch_cpus15.data     21315824                       # number of demand (read+write) hits
system.cpu15.dcache.demand_hits::total       21315824                       # number of demand (read+write) hits
system.cpu15.dcache.overall_hits::switch_cpus15.data     21315824                       # number of overall hits
system.cpu15.dcache.overall_hits::total      21315824                       # number of overall hits
system.cpu15.dcache.ReadReq_misses::switch_cpus15.data       189348                       # number of ReadReq misses
system.cpu15.dcache.ReadReq_misses::total       189348                       # number of ReadReq misses
system.cpu15.dcache.WriteReq_misses::switch_cpus15.data          351                       # number of WriteReq misses
system.cpu15.dcache.WriteReq_misses::total          351                       # number of WriteReq misses
system.cpu15.dcache.demand_misses::switch_cpus15.data       189699                       # number of demand (read+write) misses
system.cpu15.dcache.demand_misses::total       189699                       # number of demand (read+write) misses
system.cpu15.dcache.overall_misses::switch_cpus15.data       189699                       # number of overall misses
system.cpu15.dcache.overall_misses::total       189699                       # number of overall misses
system.cpu15.dcache.ReadReq_miss_latency::switch_cpus15.data  21648365390                       # number of ReadReq miss cycles
system.cpu15.dcache.ReadReq_miss_latency::total  21648365390                       # number of ReadReq miss cycles
system.cpu15.dcache.WriteReq_miss_latency::switch_cpus15.data     30903891                       # number of WriteReq miss cycles
system.cpu15.dcache.WriteReq_miss_latency::total     30903891                       # number of WriteReq miss cycles
system.cpu15.dcache.demand_miss_latency::switch_cpus15.data  21679269281                       # number of demand (read+write) miss cycles
system.cpu15.dcache.demand_miss_latency::total  21679269281                       # number of demand (read+write) miss cycles
system.cpu15.dcache.overall_miss_latency::switch_cpus15.data  21679269281                       # number of overall miss cycles
system.cpu15.dcache.overall_miss_latency::total  21679269281                       # number of overall miss cycles
system.cpu15.dcache.ReadReq_accesses::switch_cpus15.data     18054861                       # number of ReadReq accesses(hits+misses)
system.cpu15.dcache.ReadReq_accesses::total     18054861                       # number of ReadReq accesses(hits+misses)
system.cpu15.dcache.WriteReq_accesses::switch_cpus15.data      3450662                       # number of WriteReq accesses(hits+misses)
system.cpu15.dcache.WriteReq_accesses::total      3450662                       # number of WriteReq accesses(hits+misses)
system.cpu15.dcache.LoadLockedReq_accesses::switch_cpus15.data         8175                       # number of LoadLockedReq accesses(hits+misses)
system.cpu15.dcache.LoadLockedReq_accesses::total         8175                       # number of LoadLockedReq accesses(hits+misses)
system.cpu15.dcache.StoreCondReq_accesses::switch_cpus15.data         8099                       # number of StoreCondReq accesses(hits+misses)
system.cpu15.dcache.StoreCondReq_accesses::total         8099                       # number of StoreCondReq accesses(hits+misses)
system.cpu15.dcache.demand_accesses::switch_cpus15.data     21505523                       # number of demand (read+write) accesses
system.cpu15.dcache.demand_accesses::total     21505523                       # number of demand (read+write) accesses
system.cpu15.dcache.overall_accesses::switch_cpus15.data     21505523                       # number of overall (read+write) accesses
system.cpu15.dcache.overall_accesses::total     21505523                       # number of overall (read+write) accesses
system.cpu15.dcache.ReadReq_miss_rate::switch_cpus15.data     0.010487                       # miss rate for ReadReq accesses
system.cpu15.dcache.ReadReq_miss_rate::total     0.010487                       # miss rate for ReadReq accesses
system.cpu15.dcache.WriteReq_miss_rate::switch_cpus15.data     0.000102                       # miss rate for WriteReq accesses
system.cpu15.dcache.WriteReq_miss_rate::total     0.000102                       # miss rate for WriteReq accesses
system.cpu15.dcache.demand_miss_rate::switch_cpus15.data     0.008821                       # miss rate for demand accesses
system.cpu15.dcache.demand_miss_rate::total     0.008821                       # miss rate for demand accesses
system.cpu15.dcache.overall_miss_rate::switch_cpus15.data     0.008821                       # miss rate for overall accesses
system.cpu15.dcache.overall_miss_rate::total     0.008821                       # miss rate for overall accesses
system.cpu15.dcache.ReadReq_avg_miss_latency::switch_cpus15.data 114331.101411                       # average ReadReq miss latency
system.cpu15.dcache.ReadReq_avg_miss_latency::total 114331.101411                       # average ReadReq miss latency
system.cpu15.dcache.WriteReq_avg_miss_latency::switch_cpus15.data 88045.273504                       # average WriteReq miss latency
system.cpu15.dcache.WriteReq_avg_miss_latency::total 88045.273504                       # average WriteReq miss latency
system.cpu15.dcache.demand_avg_miss_latency::switch_cpus15.data 114282.464752                       # average overall miss latency
system.cpu15.dcache.demand_avg_miss_latency::total 114282.464752                       # average overall miss latency
system.cpu15.dcache.overall_avg_miss_latency::switch_cpus15.data 114282.464752                       # average overall miss latency
system.cpu15.dcache.overall_avg_miss_latency::total 114282.464752                       # average overall miss latency
system.cpu15.dcache.blocked_cycles::no_mshrs            0                       # number of cycles access was blocked
system.cpu15.dcache.blocked_cycles::no_targets            0                       # number of cycles access was blocked
system.cpu15.dcache.blocked::no_mshrs               0                       # number of cycles access was blocked
system.cpu15.dcache.blocked::no_targets             0                       # number of cycles access was blocked
system.cpu15.dcache.avg_blocked_cycles::no_mshrs          nan                       # average number of cycles each access was blocked
system.cpu15.dcache.avg_blocked_cycles::no_targets          nan                       # average number of cycles each access was blocked
system.cpu15.dcache.fast_writes                     0                       # number of fast writes performed
system.cpu15.dcache.cache_copies                    0                       # number of cache copies performed
system.cpu15.dcache.writebacks::writebacks         6254                       # number of writebacks
system.cpu15.dcache.writebacks::total            6254                       # number of writebacks
system.cpu15.dcache.ReadReq_mshr_hits::switch_cpus15.data       135017                       # number of ReadReq MSHR hits
system.cpu15.dcache.ReadReq_mshr_hits::total       135017                       # number of ReadReq MSHR hits
system.cpu15.dcache.WriteReq_mshr_hits::switch_cpus15.data          279                       # number of WriteReq MSHR hits
system.cpu15.dcache.WriteReq_mshr_hits::total          279                       # number of WriteReq MSHR hits
system.cpu15.dcache.demand_mshr_hits::switch_cpus15.data       135296                       # number of demand (read+write) MSHR hits
system.cpu15.dcache.demand_mshr_hits::total       135296                       # number of demand (read+write) MSHR hits
system.cpu15.dcache.overall_mshr_hits::switch_cpus15.data       135296                       # number of overall MSHR hits
system.cpu15.dcache.overall_mshr_hits::total       135296                       # number of overall MSHR hits
system.cpu15.dcache.ReadReq_mshr_misses::switch_cpus15.data        54331                       # number of ReadReq MSHR misses
system.cpu15.dcache.ReadReq_mshr_misses::total        54331                       # number of ReadReq MSHR misses
system.cpu15.dcache.WriteReq_mshr_misses::switch_cpus15.data           72                       # number of WriteReq MSHR misses
system.cpu15.dcache.WriteReq_mshr_misses::total           72                       # number of WriteReq MSHR misses
system.cpu15.dcache.demand_mshr_misses::switch_cpus15.data        54403                       # number of demand (read+write) MSHR misses
system.cpu15.dcache.demand_mshr_misses::total        54403                       # number of demand (read+write) MSHR misses
system.cpu15.dcache.overall_mshr_misses::switch_cpus15.data        54403                       # number of overall MSHR misses
system.cpu15.dcache.overall_mshr_misses::total        54403                       # number of overall MSHR misses
system.cpu15.dcache.ReadReq_mshr_miss_latency::switch_cpus15.data   5705602221                       # number of ReadReq MSHR miss cycles
system.cpu15.dcache.ReadReq_mshr_miss_latency::total   5705602221                       # number of ReadReq MSHR miss cycles
system.cpu15.dcache.WriteReq_mshr_miss_latency::switch_cpus15.data      4856918                       # number of WriteReq MSHR miss cycles
system.cpu15.dcache.WriteReq_mshr_miss_latency::total      4856918                       # number of WriteReq MSHR miss cycles
system.cpu15.dcache.demand_mshr_miss_latency::switch_cpus15.data   5710459139                       # number of demand (read+write) MSHR miss cycles
system.cpu15.dcache.demand_mshr_miss_latency::total   5710459139                       # number of demand (read+write) MSHR miss cycles
system.cpu15.dcache.overall_mshr_miss_latency::switch_cpus15.data   5710459139                       # number of overall MSHR miss cycles
system.cpu15.dcache.overall_mshr_miss_latency::total   5710459139                       # number of overall MSHR miss cycles
system.cpu15.dcache.ReadReq_mshr_miss_rate::switch_cpus15.data     0.003009                       # mshr miss rate for ReadReq accesses
system.cpu15.dcache.ReadReq_mshr_miss_rate::total     0.003009                       # mshr miss rate for ReadReq accesses
system.cpu15.dcache.WriteReq_mshr_miss_rate::switch_cpus15.data     0.000021                       # mshr miss rate for WriteReq accesses
system.cpu15.dcache.WriteReq_mshr_miss_rate::total     0.000021                       # mshr miss rate for WriteReq accesses
system.cpu15.dcache.demand_mshr_miss_rate::switch_cpus15.data     0.002530                       # mshr miss rate for demand accesses
system.cpu15.dcache.demand_mshr_miss_rate::total     0.002530                       # mshr miss rate for demand accesses
system.cpu15.dcache.overall_mshr_miss_rate::switch_cpus15.data     0.002530                       # mshr miss rate for overall accesses
system.cpu15.dcache.overall_mshr_miss_rate::total     0.002530                       # mshr miss rate for overall accesses
system.cpu15.dcache.ReadReq_avg_mshr_miss_latency::switch_cpus15.data 105015.593694                       # average ReadReq mshr miss latency
system.cpu15.dcache.ReadReq_avg_mshr_miss_latency::total 105015.593694                       # average ReadReq mshr miss latency
system.cpu15.dcache.WriteReq_avg_mshr_miss_latency::switch_cpus15.data 67457.194444                       # average WriteReq mshr miss latency
system.cpu15.dcache.WriteReq_avg_mshr_miss_latency::total 67457.194444                       # average WriteReq mshr miss latency
system.cpu15.dcache.demand_avg_mshr_miss_latency::switch_cpus15.data 104965.886789                       # average overall mshr miss latency
system.cpu15.dcache.demand_avg_mshr_miss_latency::total 104965.886789                       # average overall mshr miss latency
system.cpu15.dcache.overall_avg_mshr_miss_latency::switch_cpus15.data 104965.886789                       # average overall mshr miss latency
system.cpu15.dcache.overall_avg_mshr_miss_latency::total 104965.886789                       # average overall mshr miss latency
system.cpu15.dcache.no_allocate_misses              0                       # Number of misses that were no-allocate

---------- End Simulation Statistics   ----------
