
---------- Begin Simulation Statistics ----------
sim_seconds                                  0.121925                       # Number of seconds simulated
sim_ticks                                121925368158                       # Number of ticks simulated
final_tick                               691756661292                       # Number of ticks from beginning of simulation (restored from checkpoints and never reset)
sim_freq                                 1000000000000                       # Frequency of simulated ticks
host_inst_rate                                 133571                       # Simulator instruction rate (inst/s)
host_op_rate                                   173751                       # Simulator op (including micro ops) rate (op/s)
host_tick_rate                                7086120                       # Simulator tick rate (ticks/s)
host_mem_usage                               16891664                       # Number of bytes of host memory used
host_seconds                                 17206.23                       # Real time elapsed on the host
sim_insts                                  2298253817                       # Number of instructions simulated
sim_ops                                    2989590250                       # Number of ops (including micro ops) simulated
system.physmem.bytes_read::switch_cpus0.inst         1920                       # Number of bytes read from this memory
system.physmem.bytes_read::switch_cpus0.data      6528768                       # Number of bytes read from this memory
system.physmem.bytes_read::switch_cpus1.inst         1792                       # Number of bytes read from this memory
system.physmem.bytes_read::switch_cpus1.data      5782528                       # Number of bytes read from this memory
system.physmem.bytes_read::total             12315008                       # Number of bytes read from this memory
system.physmem.bytes_inst_read::switch_cpus0.inst         1920                       # Number of instructions bytes read from this memory
system.physmem.bytes_inst_read::switch_cpus1.inst         1792                       # Number of instructions bytes read from this memory
system.physmem.bytes_inst_read::total            3712                       # Number of instructions bytes read from this memory
system.physmem.bytes_written::writebacks      1724928                       # Number of bytes written to this memory
system.physmem.bytes_written::total           1724928                       # Number of bytes written to this memory
system.physmem.num_reads::switch_cpus0.inst           15                       # Number of read requests responded to by this memory
system.physmem.num_reads::switch_cpus0.data        51006                       # Number of read requests responded to by this memory
system.physmem.num_reads::switch_cpus1.inst           14                       # Number of read requests responded to by this memory
system.physmem.num_reads::switch_cpus1.data        45176                       # Number of read requests responded to by this memory
system.physmem.num_reads::total                 96211                       # Number of read requests responded to by this memory
system.physmem.num_writes::writebacks           13476                       # Number of write requests responded to by this memory
system.physmem.num_writes::functional               0                       # Number of write requests responded to by this memory
system.physmem.num_writes::interrupt                0                       # Number of write requests responded to by this memory
system.physmem.num_writes::switch_cpus0.dtb.walker            0                       # Number of write requests responded to by this memory
system.physmem.num_writes::switch_cpus0.itb.walker            0                       # Number of write requests responded to by this memory
system.physmem.num_writes::switch_cpus0.inst            0                       # Number of write requests responded to by this memory
system.physmem.num_writes::switch_cpus0.data            0                       # Number of write requests responded to by this memory
system.physmem.num_writes::switch_cpus1.dtb.walker            0                       # Number of write requests responded to by this memory
system.physmem.num_writes::switch_cpus1.itb.walker            0                       # Number of write requests responded to by this memory
system.physmem.num_writes::switch_cpus1.inst            0                       # Number of write requests responded to by this memory
system.physmem.num_writes::switch_cpus1.data            0                       # Number of write requests responded to by this memory
system.physmem.num_writes::cpu0.dtb.walker            0                       # Number of write requests responded to by this memory
system.physmem.num_writes::cpu0.itb.walker            0                       # Number of write requests responded to by this memory
system.physmem.num_writes::cpu0.inst                0                       # Number of write requests responded to by this memory
system.physmem.num_writes::cpu0.data                0                       # Number of write requests responded to by this memory
system.physmem.num_writes::cpu1.dtb.walker            0                       # Number of write requests responded to by this memory
system.physmem.num_writes::cpu1.itb.walker            0                       # Number of write requests responded to by this memory
system.physmem.num_writes::cpu1.inst                0                       # Number of write requests responded to by this memory
system.physmem.num_writes::cpu1.data                0                       # Number of write requests responded to by this memory
system.physmem.num_writes::total                13476                       # Number of write requests responded to by this memory
system.physmem.bw_read::switch_cpus0.inst        15747                       # Total read bandwidth from this memory (bytes/s)
system.physmem.bw_read::switch_cpus0.data     53547249                       # Total read bandwidth from this memory (bytes/s)
system.physmem.bw_read::switch_cpus1.inst        14698                       # Total read bandwidth from this memory (bytes/s)
system.physmem.bw_read::switch_cpus1.data     47426783                       # Total read bandwidth from this memory (bytes/s)
system.physmem.bw_read::total               101004477                       # Total read bandwidth from this memory (bytes/s)
system.physmem.bw_inst_read::switch_cpus0.inst        15747                       # Instruction read bandwidth from this memory (bytes/s)
system.physmem.bw_inst_read::switch_cpus1.inst        14698                       # Instruction read bandwidth from this memory (bytes/s)
system.physmem.bw_inst_read::total              30445                       # Instruction read bandwidth from this memory (bytes/s)
system.physmem.bw_write::writebacks          14147409                       # Write bandwidth from this memory (bytes/s)
system.physmem.bw_write::total               14147409                       # Write bandwidth from this memory (bytes/s)
system.physmem.bw_total::writebacks          14147409                       # Total bandwidth to/from this memory (bytes/s)
system.physmem.bw_total::switch_cpus0.inst        15747                       # Total bandwidth to/from this memory (bytes/s)
system.physmem.bw_total::switch_cpus0.data     53547249                       # Total bandwidth to/from this memory (bytes/s)
system.physmem.bw_total::switch_cpus1.inst        14698                       # Total bandwidth to/from this memory (bytes/s)
system.physmem.bw_total::switch_cpus1.data     47426783                       # Total bandwidth to/from this memory (bytes/s)
system.physmem.bw_total::total              115151885                       # Total bandwidth to/from this memory (bytes/s)
system.switch_cpus0.dtb.inst_hits                   0                       # ITB inst hits
system.switch_cpus0.dtb.inst_misses                 0                       # ITB inst misses
system.switch_cpus0.dtb.read_hits                   0                       # DTB read hits
system.switch_cpus0.dtb.read_misses                 0                       # DTB read misses
system.switch_cpus0.dtb.write_hits                  0                       # DTB write hits
system.switch_cpus0.dtb.write_misses                0                       # DTB write misses
system.switch_cpus0.dtb.flush_tlb                   0                       # Number of times complete TLB was flushed
system.switch_cpus0.dtb.flush_tlb_mva               0                       # Number of times TLB was flushed by MVA
system.switch_cpus0.dtb.flush_tlb_mva_asid            0                       # Number of times TLB was flushed by MVA & ASID
system.switch_cpus0.dtb.flush_tlb_asid              0                       # Number of times TLB was flushed by ASID
system.switch_cpus0.dtb.flush_entries               0                       # Number of entries that have been flushed from TLB
system.switch_cpus0.dtb.align_faults                0                       # Number of TLB faults due to alignment restrictions
system.switch_cpus0.dtb.prefetch_faults             0                       # Number of TLB faults due to prefetch
system.switch_cpus0.dtb.domain_faults               0                       # Number of TLB faults due to domain restrictions
system.switch_cpus0.dtb.perms_faults                0                       # Number of TLB faults due to permissions restrictions
system.switch_cpus0.dtb.read_accesses               0                       # DTB read accesses
system.switch_cpus0.dtb.write_accesses              0                       # DTB write accesses
system.switch_cpus0.dtb.inst_accesses               0                       # ITB inst accesses
system.switch_cpus0.dtb.hits                        0                       # DTB hits
system.switch_cpus0.dtb.misses                      0                       # DTB misses
system.switch_cpus0.dtb.accesses                    0                       # DTB accesses
system.switch_cpus0.itb.inst_hits                   0                       # ITB inst hits
system.switch_cpus0.itb.inst_misses                 0                       # ITB inst misses
system.switch_cpus0.itb.read_hits                   0                       # DTB read hits
system.switch_cpus0.itb.read_misses                 0                       # DTB read misses
system.switch_cpus0.itb.write_hits                  0                       # DTB write hits
system.switch_cpus0.itb.write_misses                0                       # DTB write misses
system.switch_cpus0.itb.flush_tlb                   0                       # Number of times complete TLB was flushed
system.switch_cpus0.itb.flush_tlb_mva               0                       # Number of times TLB was flushed by MVA
system.switch_cpus0.itb.flush_tlb_mva_asid            0                       # Number of times TLB was flushed by MVA & ASID
system.switch_cpus0.itb.flush_tlb_asid              0                       # Number of times TLB was flushed by ASID
system.switch_cpus0.itb.flush_entries               0                       # Number of entries that have been flushed from TLB
system.switch_cpus0.itb.align_faults                0                       # Number of TLB faults due to alignment restrictions
system.switch_cpus0.itb.prefetch_faults             0                       # Number of TLB faults due to prefetch
system.switch_cpus0.itb.domain_faults               0                       # Number of TLB faults due to domain restrictions
system.switch_cpus0.itb.perms_faults                0                       # Number of TLB faults due to permissions restrictions
system.switch_cpus0.itb.read_accesses               0                       # DTB read accesses
system.switch_cpus0.itb.write_accesses              0                       # DTB write accesses
system.switch_cpus0.itb.inst_accesses               0                       # ITB inst accesses
system.switch_cpus0.itb.hits                        0                       # DTB hits
system.switch_cpus0.itb.misses                      0                       # DTB misses
system.switch_cpus0.itb.accesses                    0                       # DTB accesses
system.cpu0.workload.num_syscalls                   0                       # Number of system calls
system.switch_cpus0.numCycles               292386975                       # number of cpu cycles simulated
system.switch_cpus0.numWorkItemsStarted             0                       # number of work items this cpu started
system.switch_cpus0.numWorkItemsCompleted            0                       # number of work items this cpu completed
system.switch_cpus0.BPredUnit.lookups        21165843                       # Number of BP lookups
system.switch_cpus0.BPredUnit.condPredicted     18804260                       # Number of conditional branches predicted
system.switch_cpus0.BPredUnit.condIncorrect      1831121                       # Number of conditional branches incorrect
system.switch_cpus0.BPredUnit.BTBLookups     11132721                       # Number of BTB lookups
system.switch_cpus0.BPredUnit.BTBHits        10845160                       # Number of BTB hits
system.switch_cpus0.BPredUnit.BTBCorrect            0                       # Number of correct BTB predictions (this stat may not work properly.
system.switch_cpus0.BPredUnit.usedRAS         1340346                       # Number of times the RAS was used to get a target.
system.switch_cpus0.BPredUnit.RASInCorrect        52478                       # Number of incorrect RAS predictions.
system.switch_cpus0.fetch.icacheStallCycles    228437105                       # Number of cycles fetch is stalled on an Icache miss
system.switch_cpus0.fetch.Insts             119841959                       # Number of instructions fetch has processed
system.switch_cpus0.fetch.Branches           21165843                       # Number of branches that fetch encountered
system.switch_cpus0.fetch.predictedBranches     12185506                       # Number of branches that fetch has predicted taken
system.switch_cpus0.fetch.Cycles             24220334                       # Number of cycles fetch has run and was not squashing or blocked
system.switch_cpus0.fetch.SquashCycles        5626283                       # Number of cycles fetch has spent squashing
system.switch_cpus0.fetch.BlockedCycles       3601009                       # Number of cycles fetch has spent blocked
system.switch_cpus0.fetch.PendingTrapStallCycles           23                       # Number of stall cycles due to pending traps
system.switch_cpus0.fetch.CacheLines         13978850                       # Number of cache lines fetched
system.switch_cpus0.fetch.IcacheSquashes      1823571                       # Number of outstanding Icache misses that were squashed
system.switch_cpus0.fetch.rateDist::samples    260044122                       # Number of instructions fetched each cycle (Total)
system.switch_cpus0.fetch.rateDist::mean     0.518985                       # Number of instructions fetched each cycle (Total)
system.switch_cpus0.fetch.rateDist::stdev     1.766911                       # Number of instructions fetched each cycle (Total)
system.switch_cpus0.fetch.rateDist::underflows            0      0.00%      0.00% # Number of instructions fetched each cycle (Total)
system.switch_cpus0.fetch.rateDist::0       235823788     90.69%     90.69% # Number of instructions fetched each cycle (Total)
system.switch_cpus0.fetch.rateDist::1         1097222      0.42%     91.11% # Number of instructions fetched each cycle (Total)
system.switch_cpus0.fetch.rateDist::2         2039433      0.78%     91.89% # Number of instructions fetched each cycle (Total)
system.switch_cpus0.fetch.rateDist::3         1765172      0.68%     92.57% # Number of instructions fetched each cycle (Total)
system.switch_cpus0.fetch.rateDist::4         3592328      1.38%     93.95% # Number of instructions fetched each cycle (Total)
system.switch_cpus0.fetch.rateDist::5         4346785      1.67%     95.62% # Number of instructions fetched each cycle (Total)
system.switch_cpus0.fetch.rateDist::6         1043824      0.40%     96.03% # Number of instructions fetched each cycle (Total)
system.switch_cpus0.fetch.rateDist::7          563279      0.22%     96.24% # Number of instructions fetched each cycle (Total)
system.switch_cpus0.fetch.rateDist::8         9772291      3.76%    100.00% # Number of instructions fetched each cycle (Total)
system.switch_cpus0.fetch.rateDist::overflows            0      0.00%    100.00% # Number of instructions fetched each cycle (Total)
system.switch_cpus0.fetch.rateDist::min_value            0                       # Number of instructions fetched each cycle (Total)
system.switch_cpus0.fetch.rateDist::max_value            8                       # Number of instructions fetched each cycle (Total)
system.switch_cpus0.fetch.rateDist::total    260044122                       # Number of instructions fetched each cycle (Total)
system.switch_cpus0.fetch.branchRate         0.072390                       # Number of branch fetches per cycle
system.switch_cpus0.fetch.rate               0.409874                       # Number of inst fetches per cycle
system.switch_cpus0.decode.IdleCycles       226329992                       # Number of cycles decode is idle
system.switch_cpus0.decode.BlockedCycles      5724626                       # Number of cycles decode is blocked
system.switch_cpus0.decode.RunCycles         24184807                       # Number of cycles decode is running
system.switch_cpus0.decode.UnblockCycles        23877                       # Number of cycles decode is unblocking
system.switch_cpus0.decode.SquashCycles       3780819                       # Number of cycles decode is squashing
system.switch_cpus0.decode.BranchResolved      2059658                       # Number of times decode resolved a branch
system.switch_cpus0.decode.BranchMispred         4833                       # Number of times decode detected a branch misprediction
system.switch_cpus0.decode.DecodedInsts     134886755                       # Number of instructions handled by decode
system.switch_cpus0.decode.SquashedInsts         1335                       # Number of squashed instructions handled by decode
system.switch_cpus0.rename.SquashCycles       3780819                       # Number of cycles rename is squashing
system.switch_cpus0.rename.IdleCycles       226621326                       # Number of cycles rename is idle
system.switch_cpus0.rename.BlockCycles        3418701                       # Number of cycles rename is blocking
system.switch_cpus0.rename.serializeStallCycles      1332111                       # count of cycles rename stalled for serializing inst
system.switch_cpus0.rename.RunCycles         23911846                       # Number of cycles rename is running
system.switch_cpus0.rename.UnblockCycles       979317                       # Number of cycles rename is unblocking
system.switch_cpus0.rename.RenamedInsts     134728313                       # Number of instructions processed by rename
system.switch_cpus0.rename.ROBFullEvents          145                       # Number of times rename has blocked due to ROB full
system.switch_cpus0.rename.IQFullEvents         90057                       # Number of times rename has blocked due to IQ full
system.switch_cpus0.rename.LSQFullEvents       666146                       # Number of times rename has blocked due to LSQ full
system.switch_cpus0.rename.RenamedOperands    177813205                       # Number of destination operands rename has renamed
system.switch_cpus0.rename.RenameLookups    609124389                       # Number of register rename lookups that rename has made
system.switch_cpus0.rename.int_rename_lookups    609124389                       # Number of integer rename lookups
system.switch_cpus0.rename.CommittedMaps    146711191                       # Number of HB maps that are committed
system.switch_cpus0.rename.UndoneMaps        31102006                       # Number of HB maps that are undone due to squashing
system.switch_cpus0.rename.serializingInsts        18486                       # count of serializing insts renamed
system.switch_cpus0.rename.tempSerializingInsts         9266                       # count of temporary serializing insts renamed
system.switch_cpus0.rename.skidInsts          2815622                       # count of insts added to the skid buffer
system.switch_cpus0.memDep0.insertedLoads     23515130                       # Number of loads inserted to the mem dependence unit.
system.switch_cpus0.memDep0.insertedStores      4142953                       # Number of stores inserted to the mem dependence unit.
system.switch_cpus0.memDep0.conflictingLoads        72692                       # Number of conflicting loads.
system.switch_cpus0.memDep0.conflictingStores       926227                       # Number of conflicting stores.
system.switch_cpus0.iq.iqInstsAdded         134226064                       # Number of instructions added to the IQ (excludes non-spec)
system.switch_cpus0.iq.iqNonSpecInstsAdded        18486                       # Number of non-speculative instructions added to the IQ
system.switch_cpus0.iq.iqInstsIssued        127451705                       # Number of instructions issued
system.switch_cpus0.iq.iqSquashedInstsIssued        80541                       # Number of squashed instructions issued
system.switch_cpus0.iq.iqSquashedInstsExamined     20532036                       # Number of squashed instructions iterated over during squash; mainly for profiling
system.switch_cpus0.iq.iqSquashedOperandsExamined     42750152                       # Number of squashed operands that are examined and possibly removed from graph
system.switch_cpus0.iq.iqSquashedNonSpecRemoved           46                       # Number of squashed non-spec instructions that were removed
system.switch_cpus0.iq.issued_per_cycle::samples    260044122                       # Number of insts issued each cycle
system.switch_cpus0.iq.issued_per_cycle::mean     0.490116                       # Number of insts issued each cycle
system.switch_cpus0.iq.issued_per_cycle::stdev     1.172813                       # Number of insts issued each cycle
system.switch_cpus0.iq.issued_per_cycle::underflows            0      0.00%      0.00% # Number of insts issued each cycle
system.switch_cpus0.iq.issued_per_cycle::0    205440508     79.00%     79.00% # Number of insts issued each cycle
system.switch_cpus0.iq.issued_per_cycle::1     22938253      8.82%     87.82% # Number of insts issued each cycle
system.switch_cpus0.iq.issued_per_cycle::2     11755087      4.52%     92.34% # Number of insts issued each cycle
system.switch_cpus0.iq.issued_per_cycle::3      6726849      2.59%     94.93% # Number of insts issued each cycle
system.switch_cpus0.iq.issued_per_cycle::4      7503016      2.89%     97.82% # Number of insts issued each cycle
system.switch_cpus0.iq.issued_per_cycle::5      3755258      1.44%     99.26% # Number of insts issued each cycle
system.switch_cpus0.iq.issued_per_cycle::6      1508469      0.58%     99.84% # Number of insts issued each cycle
system.switch_cpus0.iq.issued_per_cycle::7       349893      0.13%     99.97% # Number of insts issued each cycle
system.switch_cpus0.iq.issued_per_cycle::8        66789      0.03%    100.00% # Number of insts issued each cycle
system.switch_cpus0.iq.issued_per_cycle::overflows            0      0.00%    100.00% # Number of insts issued each cycle
system.switch_cpus0.iq.issued_per_cycle::min_value            0                       # Number of insts issued each cycle
system.switch_cpus0.iq.issued_per_cycle::max_value            8                       # Number of insts issued each cycle
system.switch_cpus0.iq.issued_per_cycle::total    260044122                       # Number of insts issued each cycle
system.switch_cpus0.iq.fu_full::No_OpClass            0      0.00%      0.00% # attempts to use FU when none available
system.switch_cpus0.iq.fu_full::IntAlu         233363     47.26%     47.26% # attempts to use FU when none available
system.switch_cpus0.iq.fu_full::IntMult             0      0.00%     47.26% # attempts to use FU when none available
system.switch_cpus0.iq.fu_full::IntDiv              0      0.00%     47.26% # attempts to use FU when none available
system.switch_cpus0.iq.fu_full::FloatAdd            0      0.00%     47.26% # attempts to use FU when none available
system.switch_cpus0.iq.fu_full::FloatCmp            0      0.00%     47.26% # attempts to use FU when none available
system.switch_cpus0.iq.fu_full::FloatCvt            0      0.00%     47.26% # attempts to use FU when none available
system.switch_cpus0.iq.fu_full::FloatMult            0      0.00%     47.26% # attempts to use FU when none available
system.switch_cpus0.iq.fu_full::FloatDiv            0      0.00%     47.26% # attempts to use FU when none available
system.switch_cpus0.iq.fu_full::FloatSqrt            0      0.00%     47.26% # attempts to use FU when none available
system.switch_cpus0.iq.fu_full::SimdAdd             0      0.00%     47.26% # attempts to use FU when none available
system.switch_cpus0.iq.fu_full::SimdAddAcc            0      0.00%     47.26% # attempts to use FU when none available
system.switch_cpus0.iq.fu_full::SimdAlu             0      0.00%     47.26% # attempts to use FU when none available
system.switch_cpus0.iq.fu_full::SimdCmp             0      0.00%     47.26% # attempts to use FU when none available
system.switch_cpus0.iq.fu_full::SimdCvt             0      0.00%     47.26% # attempts to use FU when none available
system.switch_cpus0.iq.fu_full::SimdMisc            0      0.00%     47.26% # attempts to use FU when none available
system.switch_cpus0.iq.fu_full::SimdMult            0      0.00%     47.26% # attempts to use FU when none available
system.switch_cpus0.iq.fu_full::SimdMultAcc            0      0.00%     47.26% # attempts to use FU when none available
system.switch_cpus0.iq.fu_full::SimdShift            0      0.00%     47.26% # attempts to use FU when none available
system.switch_cpus0.iq.fu_full::SimdShiftAcc            0      0.00%     47.26% # attempts to use FU when none available
system.switch_cpus0.iq.fu_full::SimdSqrt            0      0.00%     47.26% # attempts to use FU when none available
system.switch_cpus0.iq.fu_full::SimdFloatAdd            0      0.00%     47.26% # attempts to use FU when none available
system.switch_cpus0.iq.fu_full::SimdFloatAlu            0      0.00%     47.26% # attempts to use FU when none available
system.switch_cpus0.iq.fu_full::SimdFloatCmp            0      0.00%     47.26% # attempts to use FU when none available
system.switch_cpus0.iq.fu_full::SimdFloatCvt            0      0.00%     47.26% # attempts to use FU when none available
system.switch_cpus0.iq.fu_full::SimdFloatDiv            0      0.00%     47.26% # attempts to use FU when none available
system.switch_cpus0.iq.fu_full::SimdFloatMisc            0      0.00%     47.26% # attempts to use FU when none available
system.switch_cpus0.iq.fu_full::SimdFloatMult            0      0.00%     47.26% # attempts to use FU when none available
system.switch_cpus0.iq.fu_full::SimdFloatMultAcc            0      0.00%     47.26% # attempts to use FU when none available
system.switch_cpus0.iq.fu_full::SimdFloatSqrt            0      0.00%     47.26% # attempts to use FU when none available
system.switch_cpus0.iq.fu_full::MemRead        185698     37.61%     84.86% # attempts to use FU when none available
system.switch_cpus0.iq.fu_full::MemWrite        74741     15.14%    100.00% # attempts to use FU when none available
system.switch_cpus0.iq.fu_full::IprAccess            0      0.00%    100.00% # attempts to use FU when none available
system.switch_cpus0.iq.fu_full::InstPrefetch            0      0.00%    100.00% # attempts to use FU when none available
system.switch_cpus0.iq.FU_type_0::No_OpClass            0      0.00%      0.00% # Type of FU issued
system.switch_cpus0.iq.FU_type_0::IntAlu    100017923     78.48%     78.48% # Type of FU issued
system.switch_cpus0.iq.FU_type_0::IntMult      1005832      0.79%     79.26% # Type of FU issued
system.switch_cpus0.iq.FU_type_0::IntDiv            0      0.00%     79.26% # Type of FU issued
system.switch_cpus0.iq.FU_type_0::FloatAdd            0      0.00%     79.26% # Type of FU issued
system.switch_cpus0.iq.FU_type_0::FloatCmp            0      0.00%     79.26% # Type of FU issued
system.switch_cpus0.iq.FU_type_0::FloatCvt            0      0.00%     79.26% # Type of FU issued
system.switch_cpus0.iq.FU_type_0::FloatMult            0      0.00%     79.26% # Type of FU issued
system.switch_cpus0.iq.FU_type_0::FloatDiv            0      0.00%     79.26% # Type of FU issued
system.switch_cpus0.iq.FU_type_0::FloatSqrt            0      0.00%     79.26% # Type of FU issued
system.switch_cpus0.iq.FU_type_0::SimdAdd            0      0.00%     79.26% # Type of FU issued
system.switch_cpus0.iq.FU_type_0::SimdAddAcc            0      0.00%     79.26% # Type of FU issued
system.switch_cpus0.iq.FU_type_0::SimdAlu            0      0.00%     79.26% # Type of FU issued
system.switch_cpus0.iq.FU_type_0::SimdCmp            0      0.00%     79.26% # Type of FU issued
system.switch_cpus0.iq.FU_type_0::SimdCvt            0      0.00%     79.26% # Type of FU issued
system.switch_cpus0.iq.FU_type_0::SimdMisc            0      0.00%     79.26% # Type of FU issued
system.switch_cpus0.iq.FU_type_0::SimdMult            0      0.00%     79.26% # Type of FU issued
system.switch_cpus0.iq.FU_type_0::SimdMultAcc            0      0.00%     79.26% # Type of FU issued
system.switch_cpus0.iq.FU_type_0::SimdShift            0      0.00%     79.26% # Type of FU issued
system.switch_cpus0.iq.FU_type_0::SimdShiftAcc            0      0.00%     79.26% # Type of FU issued
system.switch_cpus0.iq.FU_type_0::SimdSqrt            0      0.00%     79.26% # Type of FU issued
system.switch_cpus0.iq.FU_type_0::SimdFloatAdd            0      0.00%     79.26% # Type of FU issued
system.switch_cpus0.iq.FU_type_0::SimdFloatAlu            0      0.00%     79.26% # Type of FU issued
system.switch_cpus0.iq.FU_type_0::SimdFloatCmp            0      0.00%     79.26% # Type of FU issued
system.switch_cpus0.iq.FU_type_0::SimdFloatCvt            0      0.00%     79.26% # Type of FU issued
system.switch_cpus0.iq.FU_type_0::SimdFloatDiv            0      0.00%     79.26% # Type of FU issued
system.switch_cpus0.iq.FU_type_0::SimdFloatMisc         9220      0.01%     79.27% # Type of FU issued
system.switch_cpus0.iq.FU_type_0::SimdFloatMult            0      0.00%     79.27% # Type of FU issued
system.switch_cpus0.iq.FU_type_0::SimdFloatMultAcc            0      0.00%     79.27% # Type of FU issued
system.switch_cpus0.iq.FU_type_0::SimdFloatSqrt            0      0.00%     79.27% # Type of FU issued
system.switch_cpus0.iq.FU_type_0::MemRead     22298494     17.50%     96.77% # Type of FU issued
system.switch_cpus0.iq.FU_type_0::MemWrite      4120236      3.23%    100.00% # Type of FU issued
system.switch_cpus0.iq.FU_type_0::IprAccess            0      0.00%    100.00% # Type of FU issued
system.switch_cpus0.iq.FU_type_0::InstPrefetch            0      0.00%    100.00% # Type of FU issued
system.switch_cpus0.iq.FU_type_0::total     127451705                       # Type of FU issued
system.switch_cpus0.iq.rate                  0.435901                       # Inst issue rate
system.switch_cpus0.iq.fu_busy_cnt             493802                       # FU busy when requested
system.switch_cpus0.iq.fu_busy_rate          0.003874                       # FU busy rate (busy events/executed inst)
system.switch_cpus0.iq.int_inst_queue_reads    515521875                       # Number of integer instruction queue reads
system.switch_cpus0.iq.int_inst_queue_writes    154776891                       # Number of integer instruction queue writes
system.switch_cpus0.iq.int_inst_queue_wakeup_accesses    124493932                       # Number of integer instruction queue wakeup accesses
system.switch_cpus0.iq.fp_inst_queue_reads            0                       # Number of floating instruction queue reads
system.switch_cpus0.iq.fp_inst_queue_writes            0                       # Number of floating instruction queue writes
system.switch_cpus0.iq.fp_inst_queue_wakeup_accesses            0                       # Number of floating instruction queue wakeup accesses
system.switch_cpus0.iq.int_alu_accesses     127945507                       # Number of integer alu accesses
system.switch_cpus0.iq.fp_alu_accesses              0                       # Number of floating point alu accesses
system.switch_cpus0.iew.lsq.thread0.forwLoads       223182                       # Number of loads that had data forwarded from stores
system.switch_cpus0.iew.lsq.thread0.invAddrLoads            0                       # Number of loads ignored due to an invalid address
system.switch_cpus0.iew.lsq.thread0.squashedLoads      3989321                       # Number of loads squashed
system.switch_cpus0.iew.lsq.thread0.ignoredResponses          159                       # Number of memory responses ignored because the instruction is squashed
system.switch_cpus0.iew.lsq.thread0.memOrderViolation          305                       # Number of memory ordering violations
system.switch_cpus0.iew.lsq.thread0.squashedStores       114045                       # Number of stores squashed
system.switch_cpus0.iew.lsq.thread0.invAddrSwpfs            0                       # Number of software prefetches ignored due to an invalid address
system.switch_cpus0.iew.lsq.thread0.blockedLoads            0                       # Number of blocked loads due to partial load-store forwarding
system.switch_cpus0.iew.lsq.thread0.rescheduledLoads            0                       # Number of loads that were rescheduled
system.switch_cpus0.iew.lsq.thread0.cacheBlocked            0                       # Number of times an access to memory failed due to the cache being blocked
system.switch_cpus0.iew.iewIdleCycles               0                       # Number of cycles IEW is idle
system.switch_cpus0.iew.iewSquashCycles       3780819                       # Number of cycles IEW is squashing
system.switch_cpus0.iew.iewBlockCycles        2574180                       # Number of cycles IEW is blocking
system.switch_cpus0.iew.iewUnblockCycles        78566                       # Number of cycles IEW is unblocking
system.switch_cpus0.iew.iewDispatchedInsts    134244551                       # Number of instructions dispatched to IQ
system.switch_cpus0.iew.iewDispSquashedInsts         6582                       # Number of squashed instructions skipped by dispatch
system.switch_cpus0.iew.iewDispLoadInsts     23515130                       # Number of dispatched load instructions
system.switch_cpus0.iew.iewDispStoreInsts      4142953                       # Number of dispatched store instructions
system.switch_cpus0.iew.iewDispNonSpecInsts         9266                       # Number of dispatched non-speculative instructions
system.switch_cpus0.iew.iewIQFullEvents         36920                       # Number of times the IQ has become full, causing a stall
system.switch_cpus0.iew.iewLSQFullEvents          750                       # Number of times the LSQ has become full, causing a stall
system.switch_cpus0.iew.memOrderViolationEvents          305                       # Number of memory order violations
system.switch_cpus0.iew.predictedTakenIncorrect       823872                       # Number of branches that were predicted taken incorrectly
system.switch_cpus0.iew.predictedNotTakenIncorrect      1105431                       # Number of branches that were predicted not taken incorrectly
system.switch_cpus0.iew.branchMispredicts      1929303                       # Number of branch mispredicts detected at execute
system.switch_cpus0.iew.iewExecutedInsts    126330452                       # Number of executed instructions
system.switch_cpus0.iew.iewExecLoadInsts     22022897                       # Number of load instructions executed
system.switch_cpus0.iew.iewExecSquashedInsts      1121253                       # Number of squashed instructions skipped in execute
system.switch_cpus0.iew.exec_swp                    0                       # number of swp insts executed
system.switch_cpus0.iew.exec_nop                    1                       # number of nop insts executed
system.switch_cpus0.iew.exec_refs            26143095                       # number of memory reference insts executed
system.switch_cpus0.iew.exec_branches        19529035                       # Number of branches executed
system.switch_cpus0.iew.exec_stores           4120198                       # Number of stores executed
system.switch_cpus0.iew.exec_rate            0.432066                       # Inst execution rate
system.switch_cpus0.iew.wb_sent             124528048                       # cumulative count of insts sent to commit
system.switch_cpus0.iew.wb_count            124493932                       # cumulative count of insts written-back
system.switch_cpus0.iew.wb_producers         71168221                       # num instructions producing a value
system.switch_cpus0.iew.wb_consumers        164131935                       # num instructions consuming a value
system.switch_cpus0.iew.wb_penalized                0                       # number of instrctions required to write to 'other' IQ
system.switch_cpus0.iew.wb_rate              0.425785                       # insts written-back per cycle
system.switch_cpus0.iew.wb_fanout            0.433604                       # average fanout of values written-back
system.switch_cpus0.iew.wb_penalized_rate            0                       # fraction of instructions written-back that wrote to 'other' IQ
system.switch_cpus0.commit.commitCommittedInsts    100000007                       # The number of committed instructions
system.switch_cpus0.commit.commitCommittedOps    112649212                       # The number of committed instructions
system.switch_cpus0.commit.commitSquashedInsts     21600491                       # The number of squashed insts skipped by commit
system.switch_cpus0.commit.commitNonSpecStalls        18440                       # The number of times commit has been forced to stall to communicate backwards
system.switch_cpus0.commit.branchMispredicts      1835564                       # The number of times a branch was mispredicted
system.switch_cpus0.commit.committed_per_cycle::samples    256263303                       # Number of insts commited each cycle
system.switch_cpus0.commit.committed_per_cycle::mean     0.439584                       # Number of insts commited each cycle
system.switch_cpus0.commit.committed_per_cycle::stdev     1.288904                       # Number of insts commited each cycle
system.switch_cpus0.commit.committed_per_cycle::underflows            0      0.00%      0.00% # Number of insts commited each cycle
system.switch_cpus0.commit.committed_per_cycle::0    214062043     83.53%     83.53% # Number of insts commited each cycle
system.switch_cpus0.commit.committed_per_cycle::1     15991698      6.24%     89.77% # Number of insts commited each cycle
system.switch_cpus0.commit.committed_per_cycle::2     12499111      4.88%     94.65% # Number of insts commited each cycle
system.switch_cpus0.commit.committed_per_cycle::3      2469153      0.96%     95.61% # Number of insts commited each cycle
system.switch_cpus0.commit.committed_per_cycle::4      3114621      1.22%     96.83% # Number of insts commited each cycle
system.switch_cpus0.commit.committed_per_cycle::5      1058880      0.41%     97.24% # Number of insts commited each cycle
system.switch_cpus0.commit.committed_per_cycle::6      4519063      1.76%     99.01% # Number of insts commited each cycle
system.switch_cpus0.commit.committed_per_cycle::7      1005301      0.39%     99.40% # Number of insts commited each cycle
system.switch_cpus0.commit.committed_per_cycle::8      1543433      0.60%    100.00% # Number of insts commited each cycle
system.switch_cpus0.commit.committed_per_cycle::overflows            0      0.00%    100.00% # Number of insts commited each cycle
system.switch_cpus0.commit.committed_per_cycle::min_value            0                       # Number of insts commited each cycle
system.switch_cpus0.commit.committed_per_cycle::max_value            8                       # Number of insts commited each cycle
system.switch_cpus0.commit.committed_per_cycle::total    256263303                       # Number of insts commited each cycle
system.switch_cpus0.commit.committedInsts    100000007                       # Number of instructions committed
system.switch_cpus0.commit.committedOps     112649212                       # Number of ops (including micro ops) committed
system.switch_cpus0.commit.swp_count                0                       # Number of s/w prefetches committed
system.switch_cpus0.commit.refs              23554717                       # Number of memory references committed
system.switch_cpus0.commit.loads             19525809                       # Number of loads committed
system.switch_cpus0.commit.membars               9220                       # Number of memory barriers committed
system.switch_cpus0.commit.branches          17774062                       # Number of branches committed
system.switch_cpus0.commit.fp_insts                 0                       # Number of committed floating point instructions.
system.switch_cpus0.commit.int_insts         97983637                       # Number of committed integer instructions.
system.switch_cpus0.commit.function_calls      1421934                       # Number of function calls committed.
system.switch_cpus0.commit.bw_lim_events      1543433                       # number cycles where commit BW limit reached
system.switch_cpus0.commit.bw_limited               0                       # number of insts not committed due to BW limits
system.switch_cpus0.rob.rob_reads           388969573                       # The number of ROB reads
system.switch_cpus0.rob.rob_writes          272280284                       # The number of ROB writes
system.switch_cpus0.timesIdled                6097353                       # Number of times that the entire CPU went into an idle state and unscheduled itself
system.switch_cpus0.idleCycles               32342853                       # Total number of cycles that the CPU has spent unscheduled due to idling
system.switch_cpus0.committedInsts          100000007                       # Number of Instructions Simulated
system.switch_cpus0.committedOps            112649212                       # Number of Ops (including micro ops) Simulated
system.switch_cpus0.committedInsts_total    100000007                       # Number of Instructions Simulated
system.switch_cpus0.cpi                      2.923870                       # CPI: Cycles Per Instruction
system.switch_cpus0.cpi_total                2.923870                       # CPI: Total CPI of All Threads
system.switch_cpus0.ipc                      0.342013                       # IPC: Instructions Per Cycle
system.switch_cpus0.ipc_total                0.342013                       # IPC: Total IPC of All Threads
system.switch_cpus0.int_regfile_reads       585065707                       # number of integer regfile reads
system.switch_cpus0.int_regfile_writes      162335811                       # number of integer regfile writes
system.switch_cpus0.misc_regfile_reads      142742208                       # number of misc regfile reads
system.switch_cpus0.misc_regfile_writes         18440                       # number of misc regfile writes
system.switch_cpus1.dtb.inst_hits                   0                       # ITB inst hits
system.switch_cpus1.dtb.inst_misses                 0                       # ITB inst misses
system.switch_cpus1.dtb.read_hits                   0                       # DTB read hits
system.switch_cpus1.dtb.read_misses                 0                       # DTB read misses
system.switch_cpus1.dtb.write_hits                  0                       # DTB write hits
system.switch_cpus1.dtb.write_misses                0                       # DTB write misses
system.switch_cpus1.dtb.flush_tlb                   0                       # Number of times complete TLB was flushed
system.switch_cpus1.dtb.flush_tlb_mva               0                       # Number of times TLB was flushed by MVA
system.switch_cpus1.dtb.flush_tlb_mva_asid            0                       # Number of times TLB was flushed by MVA & ASID
system.switch_cpus1.dtb.flush_tlb_asid              0                       # Number of times TLB was flushed by ASID
system.switch_cpus1.dtb.flush_entries               0                       # Number of entries that have been flushed from TLB
system.switch_cpus1.dtb.align_faults                0                       # Number of TLB faults due to alignment restrictions
system.switch_cpus1.dtb.prefetch_faults             0                       # Number of TLB faults due to prefetch
system.switch_cpus1.dtb.domain_faults               0                       # Number of TLB faults due to domain restrictions
system.switch_cpus1.dtb.perms_faults                0                       # Number of TLB faults due to permissions restrictions
system.switch_cpus1.dtb.read_accesses               0                       # DTB read accesses
system.switch_cpus1.dtb.write_accesses              0                       # DTB write accesses
system.switch_cpus1.dtb.inst_accesses               0                       # ITB inst accesses
system.switch_cpus1.dtb.hits                        0                       # DTB hits
system.switch_cpus1.dtb.misses                      0                       # DTB misses
system.switch_cpus1.dtb.accesses                    0                       # DTB accesses
system.switch_cpus1.itb.inst_hits                   0                       # ITB inst hits
system.switch_cpus1.itb.inst_misses                 0                       # ITB inst misses
system.switch_cpus1.itb.read_hits                   0                       # DTB read hits
system.switch_cpus1.itb.read_misses                 0                       # DTB read misses
system.switch_cpus1.itb.write_hits                  0                       # DTB write hits
system.switch_cpus1.itb.write_misses                0                       # DTB write misses
system.switch_cpus1.itb.flush_tlb                   0                       # Number of times complete TLB was flushed
system.switch_cpus1.itb.flush_tlb_mva               0                       # Number of times TLB was flushed by MVA
system.switch_cpus1.itb.flush_tlb_mva_asid            0                       # Number of times TLB was flushed by MVA & ASID
system.switch_cpus1.itb.flush_tlb_asid              0                       # Number of times TLB was flushed by ASID
system.switch_cpus1.itb.flush_entries               0                       # Number of entries that have been flushed from TLB
system.switch_cpus1.itb.align_faults                0                       # Number of TLB faults due to alignment restrictions
system.switch_cpus1.itb.prefetch_faults             0                       # Number of TLB faults due to prefetch
system.switch_cpus1.itb.domain_faults               0                       # Number of TLB faults due to domain restrictions
system.switch_cpus1.itb.perms_faults                0                       # Number of TLB faults due to permissions restrictions
system.switch_cpus1.itb.read_accesses               0                       # DTB read accesses
system.switch_cpus1.itb.write_accesses              0                       # DTB write accesses
system.switch_cpus1.itb.inst_accesses               0                       # ITB inst accesses
system.switch_cpus1.itb.hits                        0                       # DTB hits
system.switch_cpus1.itb.misses                      0                       # DTB misses
system.switch_cpus1.itb.accesses                    0                       # DTB accesses
system.cpu1.workload.num_syscalls                   0                       # Number of system calls
system.switch_cpus1.numCycles               292386975                       # number of cpu cycles simulated
system.switch_cpus1.numWorkItemsStarted             0                       # number of work items this cpu started
system.switch_cpus1.numWorkItemsCompleted            0                       # number of work items this cpu completed
system.switch_cpus1.BPredUnit.lookups        25139966                       # Number of BP lookups
system.switch_cpus1.BPredUnit.condPredicted     20380042                       # Number of conditional branches predicted
system.switch_cpus1.BPredUnit.condIncorrect      2313269                       # Number of conditional branches incorrect
system.switch_cpus1.BPredUnit.BTBLookups     10226825                       # Number of BTB lookups
system.switch_cpus1.BPredUnit.BTBHits         9524096                       # Number of BTB hits
system.switch_cpus1.BPredUnit.BTBCorrect            0                       # Number of correct BTB predictions (this stat may not work properly.
system.switch_cpus1.BPredUnit.usedRAS         2729273                       # Number of times the RAS was used to get a target.
system.switch_cpus1.BPredUnit.RASInCorrect       109485                       # Number of incorrect RAS predictions.
system.switch_cpus1.fetch.icacheStallCycles    217834739                       # Number of cycles fetch is stalled on an Icache miss
system.switch_cpus1.fetch.Insts             140163062                       # Number of instructions fetch has processed
system.switch_cpus1.fetch.Branches           25139966                       # Number of branches that fetch encountered
system.switch_cpus1.fetch.predictedBranches     12253369                       # Number of branches that fetch has predicted taken
system.switch_cpus1.fetch.Cycles             30853042                       # Number of cycles fetch has run and was not squashing or blocked
system.switch_cpus1.fetch.SquashCycles        7051704                       # Number of cycles fetch has spent squashing
system.switch_cpus1.fetch.BlockedCycles       7364987                       # Number of cycles fetch has spent blocked
system.switch_cpus1.fetch.CacheLines         13457749                       # Number of cache lines fetched
system.switch_cpus1.fetch.IcacheSquashes      2310860                       # Number of outstanding Icache misses that were squashed
system.switch_cpus1.fetch.rateDist::samples    260761343                       # Number of instructions fetched each cycle (Total)
system.switch_cpus1.fetch.rateDist::mean     0.660230                       # Number of instructions fetched each cycle (Total)
system.switch_cpus1.fetch.rateDist::stdev     2.017792                       # Number of instructions fetched each cycle (Total)
system.switch_cpus1.fetch.rateDist::underflows            0      0.00%      0.00% # Number of instructions fetched each cycle (Total)
system.switch_cpus1.fetch.rateDist::0       229908301     88.17%     88.17% # Number of instructions fetched each cycle (Total)
system.switch_cpus1.fetch.rateDist::1         2149880      0.82%     88.99% # Number of instructions fetched each cycle (Total)
system.switch_cpus1.fetch.rateDist::2         3901415      1.50%     90.49% # Number of instructions fetched each cycle (Total)
system.switch_cpus1.fetch.rateDist::3         3614958      1.39%     91.88% # Number of instructions fetched each cycle (Total)
system.switch_cpus1.fetch.rateDist::4         2297268      0.88%     92.76% # Number of instructions fetched each cycle (Total)
system.switch_cpus1.fetch.rateDist::5         1886336      0.72%     93.48% # Number of instructions fetched each cycle (Total)
system.switch_cpus1.fetch.rateDist::6         1081436      0.41%     93.89% # Number of instructions fetched each cycle (Total)
system.switch_cpus1.fetch.rateDist::7         1118386      0.43%     94.32% # Number of instructions fetched each cycle (Total)
system.switch_cpus1.fetch.rateDist::8        14803363      5.68%    100.00% # Number of instructions fetched each cycle (Total)
system.switch_cpus1.fetch.rateDist::overflows            0      0.00%    100.00% # Number of instructions fetched each cycle (Total)
system.switch_cpus1.fetch.rateDist::min_value            0                       # Number of instructions fetched each cycle (Total)
system.switch_cpus1.fetch.rateDist::max_value            8                       # Number of instructions fetched each cycle (Total)
system.switch_cpus1.fetch.rateDist::total    260761343                       # Number of instructions fetched each cycle (Total)
system.switch_cpus1.fetch.branchRate         0.085982                       # Number of branch fetches per cycle
system.switch_cpus1.fetch.rate               0.479375                       # Number of inst fetches per cycle
system.switch_cpus1.decode.IdleCycles       215600248                       # Number of cycles decode is idle
system.switch_cpus1.decode.BlockedCycles      9619262                       # Number of cycles decode is blocked
system.switch_cpus1.decode.RunCycles         30778986                       # Number of cycles decode is running
system.switch_cpus1.decode.UnblockCycles        54485                       # Number of cycles decode is unblocking
system.switch_cpus1.decode.SquashCycles       4708356                       # Number of cycles decode is squashing
system.switch_cpus1.decode.BranchResolved      4366048                       # Number of times decode resolved a branch
system.switch_cpus1.decode.BranchMispred          219                       # Number of times decode detected a branch misprediction
system.switch_cpus1.decode.DecodedInsts     172050572                       # Number of instructions handled by decode
system.switch_cpus1.decode.SquashedInsts         1274                       # Number of squashed instructions handled by decode
system.switch_cpus1.rename.SquashCycles       4708356                       # Number of cycles rename is squashing
system.switch_cpus1.rename.IdleCycles       216152269                       # Number of cycles rename is idle
system.switch_cpus1.rename.BlockCycles        1672925                       # Number of cycles rename is blocking
system.switch_cpus1.rename.serializeStallCycles      6664613                       # count of cycles rename stalled for serializing inst
system.switch_cpus1.rename.RunCycles         30248087                       # Number of cycles rename is running
system.switch_cpus1.rename.UnblockCycles      1315087                       # Number of cycles rename is unblocking
system.switch_cpus1.rename.RenamedInsts     171907457                       # Number of instructions processed by rename
system.switch_cpus1.rename.IQFullEvents        232720                       # Number of times rename has blocked due to IQ full
system.switch_cpus1.rename.LSQFullEvents       558683                       # Number of times rename has blocked due to LSQ full
system.switch_cpus1.rename.RenamedOperands    243828942                       # Number of destination operands rename has renamed
system.switch_cpus1.rename.RenameLookups    800777921                       # Number of register rename lookups that rename has made
system.switch_cpus1.rename.int_rename_lookups    800777921                       # Number of integer rename lookups
system.switch_cpus1.rename.CommittedMaps    200777190                       # Number of HB maps that are committed
system.switch_cpus1.rename.UndoneMaps        43051749                       # Number of HB maps that are undone due to squashing
system.switch_cpus1.rename.serializingInsts        39536                       # count of serializing insts renamed
system.switch_cpus1.rename.tempSerializingInsts        19768                       # count of temporary serializing insts renamed
system.switch_cpus1.rename.skidInsts          4810148                       # count of insts added to the skid buffer
system.switch_cpus1.memDep0.insertedLoads     16216987                       # Number of loads inserted to the mem dependence unit.
system.switch_cpus1.memDep0.insertedStores      8398919                       # Number of stores inserted to the mem dependence unit.
system.switch_cpus1.memDep0.conflictingLoads        96891                       # Number of conflicting loads.
system.switch_cpus1.memDep0.conflictingStores      1866219                       # Number of conflicting stores.
system.switch_cpus1.iq.iqInstsAdded         170790850                       # Number of instructions added to the IQ (excludes non-spec)
system.switch_cpus1.iq.iqNonSpecInstsAdded        39536                       # Number of non-speculative instructions added to the IQ
system.switch_cpus1.iq.iqInstsIssued        161319288                       # Number of instructions issued
system.switch_cpus1.iq.iqSquashedInstsIssued       136139                       # Number of squashed instructions issued
system.switch_cpus1.iq.iqSquashedInstsExamined     25721763                       # Number of squashed instructions iterated over during squash; mainly for profiling
system.switch_cpus1.iq.iqSquashedOperandsExamined     54053454                       # Number of squashed operands that are examined and possibly removed from graph
system.switch_cpus1.iq.issued_per_cycle::samples    260761343                       # Number of insts issued each cycle
system.switch_cpus1.iq.issued_per_cycle::mean     0.618647                       # Number of insts issued each cycle
system.switch_cpus1.iq.issued_per_cycle::stdev     1.293240                       # Number of insts issued each cycle
system.switch_cpus1.iq.issued_per_cycle::underflows            0      0.00%      0.00% # Number of insts issued each cycle
system.switch_cpus1.iq.issued_per_cycle::0    191196204     73.32%     73.32% # Number of insts issued each cycle
system.switch_cpus1.iq.issued_per_cycle::1     29448560     11.29%     84.62% # Number of insts issued each cycle
system.switch_cpus1.iq.issued_per_cycle::2     15836739      6.07%     90.69% # Number of insts issued each cycle
system.switch_cpus1.iq.issued_per_cycle::3      8027581      3.08%     93.77% # Number of insts issued each cycle
system.switch_cpus1.iq.issued_per_cycle::4      9574952      3.67%     97.44% # Number of insts issued each cycle
system.switch_cpus1.iq.issued_per_cycle::5      3096087      1.19%     98.63% # Number of insts issued each cycle
system.switch_cpus1.iq.issued_per_cycle::6      2902173      1.11%     99.74% # Number of insts issued each cycle
system.switch_cpus1.iq.issued_per_cycle::7       511150      0.20%     99.94% # Number of insts issued each cycle
system.switch_cpus1.iq.issued_per_cycle::8       167897      0.06%    100.00% # Number of insts issued each cycle
system.switch_cpus1.iq.issued_per_cycle::overflows            0      0.00%    100.00% # Number of insts issued each cycle
system.switch_cpus1.iq.issued_per_cycle::min_value            0                       # Number of insts issued each cycle
system.switch_cpus1.iq.issued_per_cycle::max_value            8                       # Number of insts issued each cycle
system.switch_cpus1.iq.issued_per_cycle::total    260761343                       # Number of insts issued each cycle
system.switch_cpus1.iq.fu_full::No_OpClass            0      0.00%      0.00% # attempts to use FU when none available
system.switch_cpus1.iq.fu_full::IntAlu         486252     59.66%     59.66% # attempts to use FU when none available
system.switch_cpus1.iq.fu_full::IntMult             0      0.00%     59.66% # attempts to use FU when none available
system.switch_cpus1.iq.fu_full::IntDiv              0      0.00%     59.66% # attempts to use FU when none available
system.switch_cpus1.iq.fu_full::FloatAdd            0      0.00%     59.66% # attempts to use FU when none available
system.switch_cpus1.iq.fu_full::FloatCmp            0      0.00%     59.66% # attempts to use FU when none available
system.switch_cpus1.iq.fu_full::FloatCvt            0      0.00%     59.66% # attempts to use FU when none available
system.switch_cpus1.iq.fu_full::FloatMult            0      0.00%     59.66% # attempts to use FU when none available
system.switch_cpus1.iq.fu_full::FloatDiv            0      0.00%     59.66% # attempts to use FU when none available
system.switch_cpus1.iq.fu_full::FloatSqrt            0      0.00%     59.66% # attempts to use FU when none available
system.switch_cpus1.iq.fu_full::SimdAdd             0      0.00%     59.66% # attempts to use FU when none available
system.switch_cpus1.iq.fu_full::SimdAddAcc            0      0.00%     59.66% # attempts to use FU when none available
system.switch_cpus1.iq.fu_full::SimdAlu             0      0.00%     59.66% # attempts to use FU when none available
system.switch_cpus1.iq.fu_full::SimdCmp             0      0.00%     59.66% # attempts to use FU when none available
system.switch_cpus1.iq.fu_full::SimdCvt             0      0.00%     59.66% # attempts to use FU when none available
system.switch_cpus1.iq.fu_full::SimdMisc            0      0.00%     59.66% # attempts to use FU when none available
system.switch_cpus1.iq.fu_full::SimdMult            0      0.00%     59.66% # attempts to use FU when none available
system.switch_cpus1.iq.fu_full::SimdMultAcc            0      0.00%     59.66% # attempts to use FU when none available
system.switch_cpus1.iq.fu_full::SimdShift            0      0.00%     59.66% # attempts to use FU when none available
system.switch_cpus1.iq.fu_full::SimdShiftAcc            0      0.00%     59.66% # attempts to use FU when none available
system.switch_cpus1.iq.fu_full::SimdSqrt            0      0.00%     59.66% # attempts to use FU when none available
system.switch_cpus1.iq.fu_full::SimdFloatAdd            0      0.00%     59.66% # attempts to use FU when none available
system.switch_cpus1.iq.fu_full::SimdFloatAlu            0      0.00%     59.66% # attempts to use FU when none available
system.switch_cpus1.iq.fu_full::SimdFloatCmp            0      0.00%     59.66% # attempts to use FU when none available
system.switch_cpus1.iq.fu_full::SimdFloatCvt            0      0.00%     59.66% # attempts to use FU when none available
system.switch_cpus1.iq.fu_full::SimdFloatDiv            0      0.00%     59.66% # attempts to use FU when none available
system.switch_cpus1.iq.fu_full::SimdFloatMisc            0      0.00%     59.66% # attempts to use FU when none available
system.switch_cpus1.iq.fu_full::SimdFloatMult            0      0.00%     59.66% # attempts to use FU when none available
system.switch_cpus1.iq.fu_full::SimdFloatMultAcc            0      0.00%     59.66% # attempts to use FU when none available
system.switch_cpus1.iq.fu_full::SimdFloatSqrt            0      0.00%     59.66% # attempts to use FU when none available
system.switch_cpus1.iq.fu_full::MemRead        167540     20.56%     80.22% # attempts to use FU when none available
system.switch_cpus1.iq.fu_full::MemWrite       161226     19.78%    100.00% # attempts to use FU when none available
system.switch_cpus1.iq.fu_full::IprAccess            0      0.00%    100.00% # attempts to use FU when none available
system.switch_cpus1.iq.fu_full::InstPrefetch            0      0.00%    100.00% # attempts to use FU when none available
system.switch_cpus1.iq.FU_type_0::No_OpClass            0      0.00%      0.00% # Type of FU issued
system.switch_cpus1.iq.FU_type_0::IntAlu    135658003     84.09%     84.09% # Type of FU issued
system.switch_cpus1.iq.FU_type_0::IntMult      2313997      1.43%     85.53% # Type of FU issued
system.switch_cpus1.iq.FU_type_0::IntDiv            0      0.00%     85.53% # Type of FU issued
system.switch_cpus1.iq.FU_type_0::FloatAdd            0      0.00%     85.53% # Type of FU issued
system.switch_cpus1.iq.FU_type_0::FloatCmp            0      0.00%     85.53% # Type of FU issued
system.switch_cpus1.iq.FU_type_0::FloatCvt            0      0.00%     85.53% # Type of FU issued
system.switch_cpus1.iq.FU_type_0::FloatMult            0      0.00%     85.53% # Type of FU issued
system.switch_cpus1.iq.FU_type_0::FloatDiv            0      0.00%     85.53% # Type of FU issued
system.switch_cpus1.iq.FU_type_0::FloatSqrt            0      0.00%     85.53% # Type of FU issued
system.switch_cpus1.iq.FU_type_0::SimdAdd            0      0.00%     85.53% # Type of FU issued
system.switch_cpus1.iq.FU_type_0::SimdAddAcc            0      0.00%     85.53% # Type of FU issued
system.switch_cpus1.iq.FU_type_0::SimdAlu            0      0.00%     85.53% # Type of FU issued
system.switch_cpus1.iq.FU_type_0::SimdCmp            0      0.00%     85.53% # Type of FU issued
system.switch_cpus1.iq.FU_type_0::SimdCvt            0      0.00%     85.53% # Type of FU issued
system.switch_cpus1.iq.FU_type_0::SimdMisc            0      0.00%     85.53% # Type of FU issued
system.switch_cpus1.iq.FU_type_0::SimdMult            0      0.00%     85.53% # Type of FU issued
system.switch_cpus1.iq.FU_type_0::SimdMultAcc            0      0.00%     85.53% # Type of FU issued
system.switch_cpus1.iq.FU_type_0::SimdShift            0      0.00%     85.53% # Type of FU issued
system.switch_cpus1.iq.FU_type_0::SimdShiftAcc            0      0.00%     85.53% # Type of FU issued
system.switch_cpus1.iq.FU_type_0::SimdSqrt            0      0.00%     85.53% # Type of FU issued
system.switch_cpus1.iq.FU_type_0::SimdFloatAdd            0      0.00%     85.53% # Type of FU issued
system.switch_cpus1.iq.FU_type_0::SimdFloatAlu            0      0.00%     85.53% # Type of FU issued
system.switch_cpus1.iq.FU_type_0::SimdFloatCmp            0      0.00%     85.53% # Type of FU issued
system.switch_cpus1.iq.FU_type_0::SimdFloatCvt            0      0.00%     85.53% # Type of FU issued
system.switch_cpus1.iq.FU_type_0::SimdFloatDiv            0      0.00%     85.53% # Type of FU issued
system.switch_cpus1.iq.FU_type_0::SimdFloatMisc        19768      0.01%     85.54% # Type of FU issued
system.switch_cpus1.iq.FU_type_0::SimdFloatMult            0      0.00%     85.54% # Type of FU issued
system.switch_cpus1.iq.FU_type_0::SimdFloatMultAcc            0      0.00%     85.54% # Type of FU issued
system.switch_cpus1.iq.FU_type_0::SimdFloatSqrt            0      0.00%     85.54% # Type of FU issued
system.switch_cpus1.iq.FU_type_0::MemRead     14955449      9.27%     94.81% # Type of FU issued
system.switch_cpus1.iq.FU_type_0::MemWrite      8372071      5.19%    100.00% # Type of FU issued
system.switch_cpus1.iq.FU_type_0::IprAccess            0      0.00%    100.00% # Type of FU issued
system.switch_cpus1.iq.FU_type_0::InstPrefetch            0      0.00%    100.00% # Type of FU issued
system.switch_cpus1.iq.FU_type_0::total     161319288                       # Type of FU issued
system.switch_cpus1.iq.rate                  0.551732                       # Inst issue rate
system.switch_cpus1.iq.fu_busy_cnt             815018                       # FU busy when requested
system.switch_cpus1.iq.fu_busy_rate          0.005052                       # FU busy rate (busy events/executed inst)
system.switch_cpus1.iq.int_inst_queue_reads    584351076                       # Number of integer instruction queue reads
system.switch_cpus1.iq.int_inst_queue_writes    196552393                       # Number of integer instruction queue writes
system.switch_cpus1.iq.int_inst_queue_wakeup_accesses    157831318                       # Number of integer instruction queue wakeup accesses
system.switch_cpus1.iq.fp_inst_queue_reads            0                       # Number of floating instruction queue reads
system.switch_cpus1.iq.fp_inst_queue_writes            0                       # Number of floating instruction queue writes
system.switch_cpus1.iq.fp_inst_queue_wakeup_accesses            0                       # Number of floating instruction queue wakeup accesses
system.switch_cpus1.iq.int_alu_accesses     162134306                       # Number of integer alu accesses
system.switch_cpus1.iq.fp_alu_accesses              0                       # Number of floating point alu accesses
system.switch_cpus1.iew.lsq.thread0.forwLoads       314135                       # Number of loads that had data forwarded from stores
system.switch_cpus1.iew.lsq.thread0.invAddrLoads            0                       # Number of loads ignored due to an invalid address
system.switch_cpus1.iew.lsq.thread0.squashedLoads      3128519                       # Number of loads squashed
system.switch_cpus1.iew.lsq.thread0.ignoredResponses            6                       # Number of memory responses ignored because the instruction is squashed
system.switch_cpus1.iew.lsq.thread0.memOrderViolation          244                       # Number of memory ordering violations
system.switch_cpus1.iew.lsq.thread0.squashedStores       107612                       # Number of stores squashed
system.switch_cpus1.iew.lsq.thread0.invAddrSwpfs            0                       # Number of software prefetches ignored due to an invalid address
system.switch_cpus1.iew.lsq.thread0.blockedLoads            0                       # Number of blocked loads due to partial load-store forwarding
system.switch_cpus1.iew.lsq.thread0.rescheduledLoads            0                       # Number of loads that were rescheduled
system.switch_cpus1.iew.lsq.thread0.cacheBlocked            0                       # Number of times an access to memory failed due to the cache being blocked
system.switch_cpus1.iew.iewIdleCycles               0                       # Number of cycles IEW is idle
system.switch_cpus1.iew.iewSquashCycles       4708356                       # Number of cycles IEW is squashing
system.switch_cpus1.iew.iewBlockCycles        1196153                       # Number of cycles IEW is blocking
system.switch_cpus1.iew.iewUnblockCycles       135683                       # Number of cycles IEW is unblocking
system.switch_cpus1.iew.iewDispatchedInsts    170830386                       # Number of instructions dispatched to IQ
system.switch_cpus1.iew.iewDispSquashedInsts         9996                       # Number of squashed instructions skipped by dispatch
system.switch_cpus1.iew.iewDispLoadInsts     16216987                       # Number of dispatched load instructions
system.switch_cpus1.iew.iewDispStoreInsts      8398919                       # Number of dispatched store instructions
system.switch_cpus1.iew.iewDispNonSpecInsts        19768                       # Number of dispatched non-speculative instructions
system.switch_cpus1.iew.iewIQFullEvents        116292                       # Number of times the IQ has become full, causing a stall
system.switch_cpus1.iew.iewLSQFullEvents            0                       # Number of times the LSQ has become full, causing a stall
system.switch_cpus1.iew.memOrderViolationEvents          244                       # Number of memory order violations
system.switch_cpus1.iew.predictedTakenIncorrect      1234779                       # Number of branches that were predicted taken incorrectly
system.switch_cpus1.iew.predictedNotTakenIncorrect      1286835                       # Number of branches that were predicted not taken incorrectly
system.switch_cpus1.iew.branchMispredicts      2521614                       # Number of branch mispredicts detected at execute
system.switch_cpus1.iew.iewExecutedInsts    158994455                       # Number of executed instructions
system.switch_cpus1.iew.iewExecLoadInsts     14428517                       # Number of load instructions executed
system.switch_cpus1.iew.iewExecSquashedInsts      2324833                       # Number of squashed instructions skipped in execute
system.switch_cpus1.iew.exec_swp                    0                       # number of swp insts executed
system.switch_cpus1.iew.exec_nop                    0                       # number of nop insts executed
system.switch_cpus1.iew.exec_refs            22800418                       # number of memory reference insts executed
system.switch_cpus1.iew.exec_branches        22444915                       # Number of branches executed
system.switch_cpus1.iew.exec_stores           8371901                       # Number of stores executed
system.switch_cpus1.iew.exec_rate            0.543781                       # Inst execution rate
system.switch_cpus1.iew.wb_sent             157831352                       # cumulative count of insts sent to commit
system.switch_cpus1.iew.wb_count            157831318                       # cumulative count of insts written-back
system.switch_cpus1.iew.wb_producers         91069634                       # num instructions producing a value
system.switch_cpus1.iew.wb_consumers        253686288                       # num instructions consuming a value
system.switch_cpus1.iew.wb_penalized                0                       # number of instrctions required to write to 'other' IQ
system.switch_cpus1.iew.wb_rate              0.539803                       # insts written-back per cycle
system.switch_cpus1.iew.wb_fanout            0.358985                       # average fanout of values written-back
system.switch_cpus1.iew.wb_penalized_rate            0                       # fraction of instructions written-back that wrote to 'other' IQ
system.switch_cpus1.commit.commitCommittedInsts    116932442                       # The number of committed instructions
system.switch_cpus1.commit.commitCommittedOps    143977973                       # The number of committed instructions
system.switch_cpus1.commit.commitSquashedInsts     26852809                       # The number of squashed insts skipped by commit
system.switch_cpus1.commit.commitNonSpecStalls        39536                       # The number of times commit has been forced to stall to communicate backwards
system.switch_cpus1.commit.branchMispredicts      2342704                       # The number of times a branch was mispredicted
system.switch_cpus1.commit.committed_per_cycle::samples    256052986                       # Number of insts commited each cycle
system.switch_cpus1.commit.committed_per_cycle::mean     0.562298                       # Number of insts commited each cycle
system.switch_cpus1.commit.committed_per_cycle::stdev     1.361980                       # Number of insts commited each cycle
system.switch_cpus1.commit.committed_per_cycle::underflows            0      0.00%      0.00% # Number of insts commited each cycle
system.switch_cpus1.commit.committed_per_cycle::0    195418845     76.32%     76.32% # Number of insts commited each cycle
system.switch_cpus1.commit.committed_per_cycle::1     27914331     10.90%     87.22% # Number of insts commited each cycle
system.switch_cpus1.commit.committed_per_cycle::2     14474345      5.65%     92.87% # Number of insts commited each cycle
system.switch_cpus1.commit.committed_per_cycle::3      4654868      1.82%     94.69% # Number of insts commited each cycle
system.switch_cpus1.commit.committed_per_cycle::4      6390886      2.50%     97.19% # Number of insts commited each cycle
system.switch_cpus1.commit.committed_per_cycle::5      2147292      0.84%     98.03% # Number of insts commited each cycle
system.switch_cpus1.commit.committed_per_cycle::6      1236192      0.48%     98.51% # Number of insts commited each cycle
system.switch_cpus1.commit.committed_per_cycle::7      1096624      0.43%     98.94% # Number of insts commited each cycle
system.switch_cpus1.commit.committed_per_cycle::8      2719603      1.06%    100.00% # Number of insts commited each cycle
system.switch_cpus1.commit.committed_per_cycle::overflows            0      0.00%    100.00% # Number of insts commited each cycle
system.switch_cpus1.commit.committed_per_cycle::min_value            0                       # Number of insts commited each cycle
system.switch_cpus1.commit.committed_per_cycle::max_value            8                       # Number of insts commited each cycle
system.switch_cpus1.commit.committed_per_cycle::total    256052986                       # Number of insts commited each cycle
system.switch_cpus1.commit.committedInsts    116932442                       # Number of instructions committed
system.switch_cpus1.commit.committedOps     143977973                       # Number of ops (including micro ops) committed
system.switch_cpus1.commit.swp_count                0                       # Number of s/w prefetches committed
system.switch_cpus1.commit.refs              21379775                       # Number of memory references committed
system.switch_cpus1.commit.loads             13088468                       # Number of loads committed
system.switch_cpus1.commit.membars              19768                       # Number of memory barriers committed
system.switch_cpus1.commit.branches          20781856                       # Number of branches committed
system.switch_cpus1.commit.fp_insts                 0                       # Number of committed floating point instructions.
system.switch_cpus1.commit.int_insts        129712897                       # Number of committed integer instructions.
system.switch_cpus1.commit.function_calls      2969586                       # Number of function calls committed.
system.switch_cpus1.commit.bw_lim_events      2719603                       # number cycles where commit BW limit reached
system.switch_cpus1.commit.bw_limited               0                       # number of insts not committed due to BW limits
system.switch_cpus1.rob.rob_reads           424164165                       # The number of ROB reads
system.switch_cpus1.rob.rob_writes          346369972                       # The number of ROB writes
system.switch_cpus1.timesIdled                3373972                       # Number of times that the entire CPU went into an idle state and unscheduled itself
system.switch_cpus1.idleCycles               31625632                       # Total number of cycles that the CPU has spent unscheduled due to idling
system.switch_cpus1.committedInsts          116932442                       # Number of Instructions Simulated
system.switch_cpus1.committedOps            143977973                       # Number of Ops (including micro ops) Simulated
system.switch_cpus1.committedInsts_total    116932442                       # Number of Instructions Simulated
system.switch_cpus1.cpi                      2.500478                       # CPI: Cycles Per Instruction
system.switch_cpus1.cpi_total                2.500478                       # CPI: Total CPI of All Threads
system.switch_cpus1.ipc                      0.399924                       # IPC: Instructions Per Cycle
system.switch_cpus1.ipc_total                0.399924                       # IPC: Total IPC of All Threads
system.switch_cpus1.int_regfile_reads       715111792                       # number of integer regfile reads
system.switch_cpus1.int_regfile_writes      220865635                       # number of integer regfile writes
system.switch_cpus1.misc_regfile_reads      158780956                       # number of misc regfile reads
system.switch_cpus1.misc_regfile_writes         39536                       # number of misc regfile writes
[...]
system.cpu1.icache.ReadReq_miss_latency::total      3408076                       # number of ReadReq miss cycles
system.cpu1.icache.demand_miss_latency::switch_cpus1.inst      3408076                       # number of demand (read+write) miss cycles
system.cpu1.icache.demand_miss_latency::total      3408076                       # number of demand (read+write) miss cycles
system.cpu1.icache.overall_miss_latency::switch_cpus1.inst      3408076                       # number of overall miss cycles
system.cpu1.icache.overall_miss_latency::total      3408076                       # number of overall miss cycles
system.cpu1.icache.ReadReq_accesses::switch_cpus1.inst     13457749                       # number of ReadReq accesses(hits+misses)
system.cpu1.icache.ReadReq_accesses::total     13457749                       # number of ReadReq accesses(hits+misses)
system.cpu1.icache.demand_accesses::switch_cpus1.inst     13457749                       # number of demand (read+write) accesses
system.cpu1.icache.demand_accesses::total     13457749                       # number of demand (read+write) accesses
system.cpu1.icache.overall_accesses::switch_cpus1.inst     13457749                       # number of overall (read+write) accesses
system.cpu1.icache.overall_accesses::total     13457749                       # number of overall (read+write) accesses
system.cpu1.icache.ReadReq_miss_rate::switch_cpus1.inst     0.000001                       # miss rate for ReadReq accesses
system.cpu1.icache.ReadReq_miss_rate::total     0.000001                       # miss rate for ReadReq accesses
system.cpu1.icache.demand_miss_rate::switch_cpus1.inst     0.000001                       # miss rate for demand accesses
system.cpu1.icache.demand_miss_rate::total     0.000001                       # miss rate for demand accesses
system.cpu1.icache.overall_miss_rate::switch_cpus1.inst     0.000001                       # miss rate for overall accesses
system.cpu1.icache.overall_miss_rate::total     0.000001                       # miss rate for overall accesses
system.cpu1.icache.ReadReq_avg_miss_latency::switch_cpus1.inst 227205.066667                       # average ReadReq miss latency
system.cpu1.icache.ReadReq_avg_miss_latency::total 227205.066667                       # average ReadReq miss latency
system.cpu1.icache.demand_avg_miss_latency::switch_cpus1.inst 227205.066667                       # average overall miss latency
system.cpu1.icache.demand_avg_miss_latency::total 227205.066667                       # average overall miss latency
system.cpu1.icache.overall_avg_miss_latency::switch_cpus1.inst 227205.066667                       # average overall miss latency
system.cpu1.icache.overall_avg_miss_latency::total 227205.066667                       # average overall miss latency
system.cpu1.icache.blocked_cycles::no_mshrs            0                       # number of cycles access was blocked
system.cpu1.icache.blocked_cycles::no_targets            0                       # number of cycles access was blocked
system.cpu1.icache.blocked::no_mshrs                0                       # number of cycles access was blocked
system.cpu1.icache.blocked::no_targets              0                       # number of cycles access was blocked
system.cpu1.icache.avg_blocked_cycles::no_mshrs          nan                       # average number of cycles each access was blocked
system.cpu1.icache.avg_blocked_cycles::no_targets          nan                       # average number of cycles each access was blocked
system.cpu1.icache.fast_writes                      0                       # number of fast writes performed
system.cpu1.icache.cache_copies                     0                       # number of cache copies performed
system.cpu1.icache.ReadReq_mshr_hits::switch_cpus1.inst            1                       # number of ReadReq MSHR hits
system.cpu1.icache.ReadReq_mshr_hits::total            1                       # number of ReadReq MSHR hits
system.cpu1.icache.demand_mshr_hits::switch_cpus1.inst            1                       # number of demand (read+write) MSHR hits
system.cpu1.icache.demand_mshr_hits::total            1                       # number of demand (read+write) MSHR hits
system.cpu1.icache.overall_mshr_hits::switch_cpus1.inst            1                       # number of overall MSHR hits
system.cpu1.icache.overall_mshr_hits::total            1                       # number of overall MSHR hits
system.cpu1.icache.ReadReq_mshr_misses::switch_cpus1.inst           14                       # number of ReadReq MSHR misses
system.cpu1.icache.ReadReq_mshr_misses::total           14                       # number of ReadReq MSHR misses
system.cpu1.icache.demand_mshr_misses::switch_cpus1.inst           14                       # number of demand (read+write) MSHR misses
system.cpu1.icache.demand_mshr_misses::total           14                       # number of demand (read+write) MSHR misses
system.cpu1.icache.overall_mshr_misses::switch_cpus1.inst           14                       # number of overall MSHR misses
system.cpu1.icache.overall_mshr_misses::total           14                       # number of overall MSHR misses
system.cpu1.icache.ReadReq_mshr_miss_latency::switch_cpus1.inst      3018890                       # number of ReadReq MSHR miss cycles
system.cpu1.icache.ReadReq_mshr_miss_latency::total      3018890                       # number of ReadReq MSHR miss cycles
system.cpu1.icache.demand_mshr_miss_latency::switch_cpus1.inst      3018890                       # number of demand (read+write) MSHR miss cycles
system.cpu1.icache.demand_mshr_miss_latency::total      3018890                       # number of demand (read+write) MSHR miss cycles
system.cpu1.icache.overall_mshr_miss_latency::switch_cpus1.inst      3018890                       # number of overall MSHR miss cycles
system.cpu1.icache.overall_mshr_miss_latency::total      3018890                       # number of overall MSHR miss cycles
system.cpu1.icache.ReadReq_mshr_miss_rate::switch_cpus1.inst     0.000001                       # mshr miss rate for ReadReq accesses
system.cpu1.icache.ReadReq_mshr_miss_rate::total     0.000001                       # mshr miss rate for ReadReq accesses
system.cpu1.icache.demand_mshr_miss_rate::switch_cpus1.inst     0.000001                       # mshr miss rate for demand accesses
system.cpu1.icache.demand_mshr_miss_rate::total     0.000001                       # mshr miss rate for demand accesses
system.cpu1.icache.overall_mshr_miss_rate::switch_cpus1.inst     0.000001                       # mshr miss rate for overall accesses
system.cpu1.icache.overall_mshr_miss_rate::total     0.000001                       # mshr miss rate for overall accesses
system.cpu1.icache.ReadReq_avg_mshr_miss_latency::switch_cpus1.inst       215635                       # average ReadReq mshr miss latency
system.cpu1.icache.ReadReq_avg_mshr_miss_latency::total       215635                       # average ReadReq mshr miss latency
system.cpu1.icache.demand_avg_mshr_miss_latency::switch_cpus1.inst       215635                       # average overall mshr miss latency
system.cpu1.icache.demand_avg_mshr_miss_latency::total       215635                       # average overall mshr miss latency
system.cpu1.icache.overall_avg_mshr_miss_latency::switch_cpus1.inst       215635                       # average overall mshr miss latency
system.cpu1.icache.overall_avg_mshr_miss_latency::total       215635                       # average overall mshr miss latency
system.cpu1.icache.no_allocate_misses               0                       # Number of misses that were no-allocate
system.cpu1.dcache.replacements                 45547                       # number of replacements
system.cpu1.dcache.tagsinuse                      256                       # Cycle average of tags in use
system.cpu1.dcache.total_refs               183253818                       # Total number of references to valid blocks.
system.cpu1.dcache.sampled_refs                 45803                       # Sample count of references to valid blocks.
system.cpu1.dcache.avg_refs               4000.912997                       # Average number of references to valid blocks.
system.cpu1.dcache.warmup_cycle                     0                       # Cycle when the warmup percentage was hit.
system.cpu1.dcache.occ_blocks::switch_cpus1.data   232.685979                       # Average occupied blocks per requestor
system.cpu1.dcache.occ_blocks::cpu1.data    23.314021                       # Average occupied blocks per requestor
system.cpu1.dcache.occ_percent::switch_cpus1.data     0.908930                       # Average percentage of cache occupancy
system.cpu1.dcache.occ_percent::cpu1.data     0.091070                       # Average percentage of cache occupancy
system.cpu1.dcache.occ_percent::total               1                       # Average percentage of cache occupancy
system.cpu1.dcache.ReadReq_hits::switch_cpus1.data     10841172                       # number of ReadReq hits
system.cpu1.dcache.ReadReq_hits::total       10841172                       # number of ReadReq hits
system.cpu1.dcache.WriteReq_hits::switch_cpus1.data      8253761                       # number of WriteReq hits
system.cpu1.dcache.WriteReq_hits::total       8253761                       # number of WriteReq hits
system.cpu1.dcache.LoadLockedReq_hits::switch_cpus1.data        19768                       # number of LoadLockedReq hits
system.cpu1.dcache.LoadLockedReq_hits::total        19768                       # number of LoadLockedReq hits
system.cpu1.dcache.StoreCondReq_hits::switch_cpus1.data        19768                       # number of StoreCondReq hits
system.cpu1.dcache.StoreCondReq_hits::total        19768                       # number of StoreCondReq hits
system.cpu1.dcache.demand_hits::switch_cpus1.data     19094933                       # number of demand (read+write) hits
system.cpu1.dcache.demand_hits::total        19094933                       # number of demand (read+write) hits
system.cpu1.dcache.overall_hits::switch_cpus1.data     19094933                       # number of overall hits
system.cpu1.dcache.overall_hits::total       19094933                       # number of overall hits
system.cpu1.dcache.ReadReq_misses::switch_cpus1.data       137159                       # number of ReadReq misses
system.cpu1.dcache.ReadReq_misses::total       137159                       # number of ReadReq misses
system.cpu1.dcache.demand_misses::switch_cpus1.data       137159                       # number of demand (read+write) misses
system.cpu1.dcache.demand_misses::total        137159                       # number of demand (read+write) misses
system.cpu1.dcache.overall_misses::switch_cpus1.data       137159                       # number of overall misses
system.cpu1.dcache.overall_misses::total       137159                       # number of overall misses
system.cpu1.dcache.ReadReq_miss_latency::switch_cpus1.data  32605271722                       # number of ReadReq miss cycles
system.cpu1.dcache.ReadReq_miss_latency::total  32605271722                       # number of ReadReq miss cycles
system.cpu1.dcache.demand_miss_latency::switch_cpus1.data  32605271722                       # number of demand (read+write) miss cycles
system.cpu1.dcache.demand_miss_latency::total  32605271722                       # number of demand (read+write) miss cycles
system.cpu1.dcache.overall_miss_latency::switch_cpus1.data  32605271722                       # number of overall miss cycles
system.cpu1.dcache.overall_miss_latency::total  32605271722                       # number of overall miss cycles
system.cpu1.dcache.ReadReq_accesses::switch_cpus1.data     10978331                       # number of ReadReq accesses(hits+misses)
system.cpu1.dcache.ReadReq_accesses::total     10978331                       # number of ReadReq accesses(hits+misses)
system.cpu1.dcache.WriteReq_accesses::switch_cpus1.data      8253761                       # number of WriteReq accesses(hits+misses)
system.cpu1.dcache.WriteReq_accesses::total      8253761                       # number of WriteReq accesses(hits+misses)
system.cpu1.dcache.LoadLockedReq_accesses::switch_cpus1.data        19768                       # number of LoadLockedReq accesses(hits+misses)
system.cpu1.dcache.LoadLockedReq_accesses::total        19768                       # number of LoadLockedReq accesses(hits+misses)
system.cpu1.dcache.StoreCondReq_accesses::switch_cpus1.data        19768                       # number of StoreCondReq accesses(hits+misses)
system.cpu1.dcache.StoreCondReq_accesses::total        19768                       # number of StoreCondReq accesses(hits+misses)
system.cpu1.dcache.demand_accesses::switch_cpus1.data     19232092                       # number of demand (read+write) accesses
system.cpu1.dcache.demand_accesses::total     19232092                       # number of demand (read+write) accesses
system.cpu1.dcache.overall_accesses::switch_cpus1.data     19232092                       # number of overall (read+write) accesses
system.cpu1.dcache.overall_accesses::total     19232092                       # number of overall (read+write) accesses
system.cpu1.dcache.ReadReq_miss_rate::switch_cpus1.data     0.012494                       # miss rate for ReadReq accesses
system.cpu1.dcache.ReadReq_miss_rate::total     0.012494                       # miss rate for ReadReq accesses
system.cpu1.dcache.demand_miss_rate::switch_cpus1.data     0.007132                       # miss rate for demand accesses
system.cpu1.dcache.demand_miss_rate::total     0.007132                       # miss rate for demand accesses
system.cpu1.dcache.overall_miss_rate::switch_cpus1.data     0.007132                       # miss rate for overall accesses
system.cpu1.dcache.overall_miss_rate::total     0.007132                       # miss rate for overall accesses
system.cpu1.dcache.ReadReq_avg_miss_latency::switch_cpus1.data 237718.791490                       # average ReadReq miss latency
system.cpu1.dcache.ReadReq_avg_miss_latency::total 237718.791490                       # average ReadReq miss latency
system.cpu1.dcache.demand_avg_miss_latency::switch_cpus1.data 237718.791490                       # average overall miss latency
system.cpu1.dcache.demand_avg_miss_latency::total 237718.791490                       # average overall miss latency
system.cpu1.dcache.overall_avg_miss_latency::switch_cpus1.data 237718.791490                       # average overall miss latency
system.cpu1.dcache.overall_avg_miss_latency::total 237718.791490                       # average overall miss latency
system.cpu1.dcache.blocked_cycles::no_mshrs            0                       # number of cycles access was blocked
system.cpu1.dcache.blocked_cycles::no_targets            0                       # number of cycles access was blocked
system.cpu1.dcache.blocked::no_mshrs                0                       # number of cycles access was blocked
system.cpu1.dcache.blocked::no_targets              0                       # number of cycles access was blocked
system.cpu1.dcache.avg_blocked_cycles::no_mshrs          nan                       # average number of cycles each access was blocked
system.cpu1.dcache.avg_blocked_cycles::no_targets          nan                       # average number of cycles each access was blocked
system.cpu1.dcache.fast_writes                      0                       # number of fast writes performed
system.cpu1.dcache.cache_copies                     0                       # number of cache copies performed
system.cpu1.dcache.writebacks::writebacks         9693                       # number of writebacks
system.cpu1.dcache.writebacks::total             9693                       # number of writebacks
system.cpu1.dcache.ReadReq_mshr_hits::switch_cpus1.data        91612                       # number of ReadReq MSHR hits
system.cpu1.dcache.ReadReq_mshr_hits::total        91612                       # number of ReadReq MSHR hits
system.cpu1.dcache.demand_mshr_hits::switch_cpus1.data        91612                       # number of demand (read+write) MSHR hits
system.cpu1.dcache.demand_mshr_hits::total        91612                       # number of demand (read+write) MSHR hits
system.cpu1.dcache.overall_mshr_hits::switch_cpus1.data        91612                       # number of overall MSHR hits
system.cpu1.dcache.overall_mshr_hits::total        91612                       # number of overall MSHR hits
system.cpu1.dcache.ReadReq_mshr_misses::switch_cpus1.data        45547                       # number of ReadReq MSHR misses
system.cpu1.dcache.ReadReq_mshr_misses::total        45547                       # number of ReadReq MSHR misses
system.cpu1.dcache.demand_mshr_misses::switch_cpus1.data        45547                       # number of demand (read+write) MSHR misses
system.cpu1.dcache.demand_mshr_misses::total        45547                       # number of demand (read+write) MSHR misses
system.cpu1.dcache.overall_mshr_misses::switch_cpus1.data        45547                       # number of overall MSHR misses
system.cpu1.dcache.overall_mshr_misses::total        45547                       # number of overall MSHR misses
system.cpu1.dcache.ReadReq_mshr_miss_latency::switch_cpus1.data  10116947036                       # number of ReadReq MSHR miss cycles
system.cpu1.dcache.ReadReq_mshr_miss_latency::total  10116947036                       # number of ReadReq MSHR miss cycles
system.cpu1.dcache.demand_mshr_miss_latency::switch_cpus1.data  10116947036                       # number of demand (read+write) MSHR miss cycles
system.cpu1.dcache.demand_mshr_miss_latency::total  10116947036                       # number of demand (read+write) MSHR miss cycles
system.cpu1.dcache.overall_mshr_miss_latency::switch_cpus1.data  10116947036                       # number of overall MSHR miss cycles
system.cpu1.dcache.overall_mshr_miss_latency::total  10116947036                       # number of overall MSHR miss cycles
system.cpu1.dcache.ReadReq_mshr_miss_rate::switch_cpus1.data     0.004149                       # mshr miss rate for ReadReq accesses
system.cpu1.dcache.ReadReq_mshr_miss_rate::total     0.004149                       # mshr miss rate for ReadReq accesses
system.cpu1.dcache.demand_mshr_miss_rate::switch_cpus1.data     0.002368                       # mshr miss rate for demand accesses
system.cpu1.dcache.demand_mshr_miss_rate::total     0.002368                       # mshr miss rate for demand accesses
system.cpu1.dcache.overall_mshr_miss_rate::switch_cpus1.data     0.002368                       # mshr miss rate for overall accesses
system.cpu1.dcache.overall_mshr_miss_rate::total     0.002368                       # mshr miss rate for overall accesses
system.cpu1.dcache.ReadReq_avg_mshr_miss_latency::switch_cpus1.data 222121.040595                       # average ReadReq mshr miss latency
system.cpu1.dcache.ReadReq_avg_mshr_miss_latency::total 222121.040595                       # average ReadReq mshr miss latency
system.cpu1.dcache.demand_avg_mshr_miss_latency::switch_cpus1.data 222121.040595                       # average overall mshr miss latency
system.cpu1.dcache.demand_avg_mshr_miss_latency::total 222121.040595                       # average overall mshr miss latency
system.cpu1.dcache.overall_avg_mshr_miss_latency::switch_cpus1.data 222121.040595                       # average overall mshr miss latency
system.cpu1.dcache.overall_avg_mshr_miss_latency::total 222121.040595                       # average overall mshr miss latency
system.cpu1.dcache.no_allocate_misses               0                       # Number of misses that were no-allocate

---------- End Simulation Statistics   ----------
