
---------- Begin Simulation Statistics ----------
sim_seconds                                  0.101244                       # Number of seconds simulated
sim_ticks                                101243776944                       # Number of ticks simulated
final_tick                               628237674222                       # Number of ticks from beginning of simulation (restored from checkpoints and never reset)
sim_freq                                 1000000000000                       # Frequency of simulated ticks
host_inst_rate                                 157861                       # Simulator instruction rate (inst/s)
host_op_rate                                   199231                       # Simulator op (including micro ops) rate (op/s)
host_tick_rate                                4850454                       # Simulator tick rate (ticks/s)
host_mem_usage                               16909164                       # Number of bytes of host memory used
host_seconds                                 20873.05                       # Real time elapsed on the host
sim_insts                                  3295044749                       # Number of instructions simulated
sim_ops                                    4158552550                       # Number of ops (including micro ops) simulated
system.physmem.bytes_read::switch_cpus0.inst         1664                       # Number of bytes read from this memory
system.physmem.bytes_read::switch_cpus0.data      2428544                       # Number of bytes read from this memory
system.physmem.bytes_read::switch_cpus1.inst         1920                       # Number of bytes read from this memory
system.physmem.bytes_read::switch_cpus1.data       536320                       # Number of bytes read from this memory
system.physmem.bytes_read::switch_cpus2.inst         1280                       # Number of bytes read from this memory
system.physmem.bytes_read::switch_cpus2.data      1913728                       # Number of bytes read from this memory
system.physmem.bytes_read::total              4883456                       # Number of bytes read from this memory
system.physmem.bytes_inst_read::switch_cpus0.inst         1664                       # Number of instructions bytes read from this memory
system.physmem.bytes_inst_read::switch_cpus1.inst         1920                       # Number of instructions bytes read from this memory
system.physmem.bytes_inst_read::switch_cpus2.inst         1280                       # Number of instructions bytes read from this memory
system.physmem.bytes_inst_read::total            4864                       # Number of instructions bytes read from this memory
system.physmem.bytes_written::writebacks      1308160                       # Number of bytes written to this memory
system.physmem.bytes_written::total           1308160                       # Number of bytes written to this memory
system.physmem.num_reads::switch_cpus0.inst           13                       # Number of read requests responded to by this memory
system.physmem.num_reads::switch_cpus0.data        18973                       # Number of read requests responded to by this memory
system.physmem.num_reads::switch_cpus1.inst           15                       # Number of read requests responded to by this memory
system.physmem.num_reads::switch_cpus1.data         4190                       # Number of read requests responded to by this memory
system.physmem.num_reads::switch_cpus2.inst           10                       # Number of read requests responded to by this memory
system.physmem.num_reads::switch_cpus2.data        14951                       # Number of read requests responded to by this memory
system.physmem.num_reads::total                 38152                       # Number of read requests responded to by this memory
system.physmem.num_writes::writebacks           10220                       # Number of write requests responded to by this memory
system.physmem.num_writes::functional               0                       # Number of write requests responded to by this memory
system.physmem.num_writes::interrupt                0                       # Number of write requests responded to by this memory
system.physmem.num_writes::switch_cpus0.dtb.walker            0                       # Number of write requests responded to by this memory
system.physmem.num_writes::switch_cpus0.itb.walker            0                       # Number of write requests responded to by this memory
system.physmem.num_writes::switch_cpus0.inst            0                       # Number of write requests responded to by this memory
system.physmem.num_writes::switch_cpus0.data            0                       # Number of write requests responded to by this memory
system.physmem.num_writes::switch_cpus1.dtb.walker            0                       # Number of write requests responded to by this memory
system.physmem.num_writes::switch_cpus1.itb.walker            0                       # Number of write requests responded to by this memory
system.physmem.num_writes::switch_cpus1.inst            0                       # Number of write requests responded to by this memory
system.physmem.num_writes::switch_cpus1.data            0                       # Number of write requests responded to by this memory
system.physmem.num_writes::switch_cpus2.dtb.walker            0                       # Number of write requests responded to by this memory
system.physmem.num_writes::switch_cpus2.itb.walker            0                       # Number of write requests responded to by this memory
system.physmem.num_writes::switch_cpus2.inst            0                       # Number of write requests responded to by this memory
system.physmem.num_writes::switch_cpus2.data            0                       # Number of write requests responded to by this memory
system.physmem.num_writes::cpu0.dtb.walker            0                       # Number of write requests responded to by this memory
system.physmem.num_writes::cpu0.itb.walker            0                       # Number of write requests responded to by this memory
system.physmem.num_writes::cpu0.inst                0                       # Number of write requests responded to by this memory
system.physmem.num_writes::cpu0.data                0                       # Number of write requests responded to by this memory
system.physmem.num_writes::cpu1.dtb.walker            0                       # Number of write requests responded to by this memory
system.physmem.num_writes::cpu1.itb.walker            0                       # Number of write requests responded to by this memory
system.physmem.num_writes::cpu1.inst                0                       # Number of write requests responded to by this memory
system.physmem.num_writes::cpu1.data                0                       # Number of write requests responded to by this memory
system.physmem.num_writes::cpu2.dtb.walker            0                       # Number of write requests responded to by this memory
system.physmem.num_writes::cpu2.itb.walker            0                       # Number of write requests responded to by this memory
system.physmem.num_writes::cpu2.inst                0                       # Number of write requests responded to by this memory
system.physmem.num_writes::cpu2.data                0                       # Number of write requests responded to by this memory
system.physmem.num_writes::total                10220                       # Number of write requests responded to by this memory
system.physmem.bw_read::switch_cpus0.inst        16436                       # Total read bandwidth from this memory (bytes/s)
system.physmem.bw_read::switch_cpus0.data     23987094                       # Total read bandwidth from this memory (bytes/s)
system.physmem.bw_read::switch_cpus1.inst        18964                       # Total read bandwidth from this memory (bytes/s)
system.physmem.bw_read::switch_cpus1.data      5297313                       # Total read bandwidth from this memory (bytes/s)
system.physmem.bw_read::switch_cpus2.inst        12643                       # Total read bandwidth from this memory (bytes/s)
system.physmem.bw_read::switch_cpus2.data     18902179                       # Total read bandwidth from this memory (bytes/s)
system.physmem.bw_read::total                48234629                       # Total read bandwidth from this memory (bytes/s)
system.physmem.bw_inst_read::switch_cpus0.inst        16436                       # Instruction read bandwidth from this memory (bytes/s)
system.physmem.bw_inst_read::switch_cpus1.inst        18964                       # Instruction read bandwidth from this memory (bytes/s)
system.physmem.bw_inst_read::switch_cpus2.inst        12643                       # Instruction read bandwidth from this memory (bytes/s)
system.physmem.bw_inst_read::total              48042                       # Instruction read bandwidth from this memory (bytes/s)
system.physmem.bw_write::writebacks          12920893                       # Write bandwidth from this memory (bytes/s)
system.physmem.bw_write::total               12920893                       # Write bandwidth from this memory (bytes/s)
system.physmem.bw_total::writebacks          12920893                       # Total bandwidth to/from this memory (bytes/s)
system.physmem.bw_total::switch_cpus0.inst        16436                       # Total bandwidth to/from this memory (bytes/s)
system.physmem.bw_total::switch_cpus0.data     23987094                       # Total bandwidth to/from this memory (bytes/s)
system.physmem.bw_total::switch_cpus1.inst        18964                       # Total bandwidth to/from this memory (bytes/s)
system.physmem.bw_total::switch_cpus1.data      5297313                       # Total bandwidth to/from this memory (bytes/s)
system.physmem.bw_total::switch_cpus2.inst        12643                       # Total bandwidth to/from this memory (bytes/s)
system.physmem.bw_total::switch_cpus2.data     18902179                       # Total bandwidth to/from this memory (bytes/s)
system.physmem.bw_total::total               61155522                       # Total bandwidth to/from this memory (bytes/s)
system.switch_cpus0.dtb.inst_hits                   0                       # ITB inst hits
system.switch_cpus0.dtb.inst_misses                 0                       # ITB inst misses
system.switch_cpus0.dtb.read_hits                   0                       # DTB read hits
system.switch_cpus0.dtb.read_misses                 0                       # DTB read misses
system.switch_cpus0.dtb.write_hits                  0                       # DTB write hits
system.switch_cpus0.dtb.write_misses                0                       # DTB write misses
system.switch_cpus0.dtb.flush_tlb                   0                       # Number of times complete TLB was flushed
system.switch_cpus0.dtb.flush_tlb_mva               0                       # Number of times TLB was flushed by MVA
system.switch_cpus0.dtb.flush_tlb_mva_asid            0                       # Number of times TLB was flushed by MVA & ASID
system.switch_cpus0.dtb.flush_tlb_asid              0                       # Number of times TLB was flushed by ASID
system.switch_cpus0.dtb.flush_entries               0                       # Number of entries that have been flushed from TLB
system.switch_cpus0.dtb.align_faults                0                       # Number of TLB faults due to alignment restrictions
system.switch_cpus0.dtb.prefetch_faults             0                       # Number of TLB faults due to prefetch
system.switch_cpus0.dtb.domain_faults               0                       # Number of TLB faults due to domain restrictions
system.switch_cpus0.dtb.perms_faults                0                       # Number of TLB faults due to permissions restrictions
system.switch_cpus0.dtb.read_accesses               0                       # DTB read accesses
system.switch_cpus0.dtb.write_accesses              0                       # DTB write accesses
system.switch_cpus0.dtb.inst_accesses               0                       # ITB inst accesses
system.switch_cpus0.dtb.hits                        0                       # DTB hits
system.switch_cpus0.dtb.misses                      0                       # DTB misses
system.switch_cpus0.dtb.accesses                    0                       # DTB accesses
system.switch_cpus0.itb.inst_hits                   0                       # ITB inst hits
system.switch_cpus0.itb.inst_misses                 0                       # ITB inst misses
system.switch_cpus0.itb.read_hits                   0                       # DTB read hits
system.switch_cpus0.itb.read_misses                 0                       # DTB read misses
system.switch_cpus0.itb.write_hits                  0                       # DTB write hits
system.switch_cpus0.itb.write_misses                0                       # DTB write misses
system.switch_cpus0.itb.flush_tlb                   0                       # Number of times complete TLB was flushed
system.switch_cpus0.itb.flush_tlb_mva               0                       # Number of times TLB was flushed by MVA
system.switch_cpus0.itb.flush_tlb_mva_asid            0                       # Number of times TLB was flushed by MVA & ASID
system.switch_cpus0.itb.flush_tlb_asid              0                       # Number of times TLB was flushed by ASID
system.switch_cpus0.itb.flush_entries               0                       # Number of entries that have been flushed from TLB
system.switch_cpus0.itb.align_faults                0                       # Number of TLB faults due to alignment restrictions
system.switch_cpus0.itb.prefetch_faults             0                       # Number of TLB faults due to prefetch
system.switch_cpus0.itb.domain_faults               0                       # Number of TLB faults due to domain restrictions
system.switch_cpus0.itb.perms_faults                0                       # Number of TLB faults due to permissions restrictions
system.switch_cpus0.itb.read_accesses               0                       # DTB read accesses
system.switch_cpus0.itb.write_accesses              0                       # DTB write accesses
system.switch_cpus0.itb.inst_accesses               0                       # ITB inst accesses
system.switch_cpus0.itb.hits                        0                       # DTB hits
system.switch_cpus0.itb.misses                      0                       # DTB misses
system.switch_cpus0.itb.accesses                    0                       # DTB accesses
system.cpu0.workload.num_syscalls                   0                       # Number of system calls
system.switch_cpus0.numCycles               242790833                       # number of cpu cycles simulated
system.switch_cpus0.numWorkItemsStarted             0                       # number of work items this cpu started
system.switch_cpus0.numWorkItemsCompleted            0                       # number of work items this cpu completed
system.switch_cpus0.BPredUnit.lookups        21943597                       # Number of BP lookups
system.switch_cpus0.BPredUnit.condPredicted     17778232                       # Number of conditional branches predicted
system.switch_cpus0.BPredUnit.condIncorrect      2014687                       # Number of conditional branches incorrect
system.switch_cpus0.BPredUnit.BTBLookups      8986669                       # Number of BTB lookups
system.switch_cpus0.BPredUnit.BTBHits         8290288                       # Number of BTB hits
system.switch_cpus0.BPredUnit.BTBCorrect            0                       # Number of correct BTB predictions (this stat may not work properly.
system.switch_cpus0.BPredUnit.usedRAS         2464754                       # Number of times the RAS was used to get a target.
system.switch_cpus0.BPredUnit.RASInCorrect        91188                       # Number of incorrect RAS predictions.
system.switch_cpus0.fetch.icacheStallCycles    185665782                       # Number of cycles fetch is stalled on an Icache miss
system.switch_cpus0.fetch.Insts             121946920                       # Number of instructions fetch has processed
system.switch_cpus0.fetch.Branches           21943597                       # Number of branches that fetch encountered
system.switch_cpus0.fetch.predictedBranches     10755042                       # Number of branches that fetch has predicted taken
system.switch_cpus0.fetch.Cycles             26718440                       # Number of cycles fetch has run and was not squashing or blocked
system.switch_cpus0.fetch.SquashCycles        6168595                       # Number of cycles fetch has spent squashing
system.switch_cpus0.fetch.BlockedCycles       4516061                       # Number of cycles fetch has spent blocked
system.switch_cpus0.fetch.CacheLines         11621301                       # Number of cache lines fetched
system.switch_cpus0.fetch.IcacheSquashes      2014705                       # Number of outstanding Icache misses that were squashed
system.switch_cpus0.fetch.rateDist::samples    221009109                       # Number of instructions fetched each cycle (Total)
system.switch_cpus0.fetch.rateDist::mean     0.677987                       # Number of instructions fetched each cycle (Total)
system.switch_cpus0.fetch.rateDist::stdev     2.049779                       # Number of instructions fetched each cycle (Total)
system.switch_cpus0.fetch.rateDist::underflows            0      0.00%      0.00% # Number of instructions fetched each cycle (Total)
system.switch_cpus0.fetch.rateDist::0       194290669     87.91%     87.91% # Number of instructions fetched each cycle (Total)
system.switch_cpus0.fetch.rateDist::1         2486288      1.12%     89.04% # Number of instructions fetched each cycle (Total)
system.switch_cpus0.fetch.rateDist::2         1961671      0.89%     89.92% # Number of instructions fetched each cycle (Total)
system.switch_cpus0.fetch.rateDist::3         4591915      2.08%     92.00% # Number of instructions fetched each cycle (Total)
system.switch_cpus0.fetch.rateDist::4          997632      0.45%     92.45% # Number of instructions fetched each cycle (Total)
system.switch_cpus0.fetch.rateDist::5         1556195      0.70%     93.16% # Number of instructions fetched each cycle (Total)
system.switch_cpus0.fetch.rateDist::6         1185616      0.54%     93.69% # Number of instructions fetched each cycle (Total)
system.switch_cpus0.fetch.rateDist::7          742151      0.34%     94.03% # Number of instructions fetched each cycle (Total)
system.switch_cpus0.fetch.rateDist::8        13196972      5.97%    100.00% # Number of instructions fetched each cycle (Total)
system.switch_cpus0.fetch.rateDist::overflows            0      0.00%    100.00% # Number of instructions fetched each cycle (Total)
system.switch_cpus0.fetch.rateDist::min_value            0                       # Number of instructions fetched each cycle (Total)
system.switch_cpus0.fetch.rateDist::max_value            8                       # Number of instructions fetched each cycle (Total)
system.switch_cpus0.fetch.rateDist::total    221009109                       # Number of instructions fetched each cycle (Total)
system.switch_cpus0.fetch.branchRate         0.090381                       # Number of branch fetches per cycle
system.switch_cpus0.fetch.rate               0.502272                       # Number of inst fetches per cycle
system.switch_cpus0.decode.IdleCycles       183596224                       # Number of cycles decode is idle
system.switch_cpus0.decode.BlockedCycles      6645352                       # Number of cycles decode is blocked
system.switch_cpus0.decode.RunCycles         26613048                       # Number of cycles decode is running
system.switch_cpus0.decode.UnblockCycles        87131                       # Number of cycles decode is unblocking
system.switch_cpus0.decode.SquashCycles       4067348                       # Number of cycles decode is squashing
system.switch_cpus0.decode.BranchResolved      3782256                       # Number of times decode resolved a branch
system.switch_cpus0.decode.BranchMispred        42069                       # Number of times decode detected a branch misprediction
system.switch_cpus0.decode.DecodedInsts     149550132                       # Number of instructions handled by decode
system.switch_cpus0.decode.SquashedInsts        75045                       # Number of squashed instructions handled by decode
system.switch_cpus0.rename.SquashCycles       4067348                       # Number of cycles rename is squashing
system.switch_cpus0.rename.IdleCycles       184100624                       # Number of cycles rename is idle
system.switch_cpus0.rename.BlockCycles        1715157                       # Number of cycles rename is blocking
system.switch_cpus0.rename.serializeStallCycles      3495423                       # count of cycles rename stalled for serializing inst
system.switch_cpus0.rename.RunCycles         26165527                       # Number of cycles rename is running
system.switch_cpus0.rename.UnblockCycles      1465024                       # Number of cycles rename is unblocking
system.switch_cpus0.rename.RenamedInsts     149413062                       # Number of instructions processed by rename
system.switch_cpus0.rename.ROBFullEvents        28042                       # Number of times rename has blocked due to ROB full
system.switch_cpus0.rename.IQFullEvents        277447                       # Number of times rename has blocked due to IQ full
system.switch_cpus0.rename.LSQFullEvents       539168                       # Number of times rename has blocked due to LSQ full
system.switch_cpus0.rename.FullRegisterEvents       208412                       # Number of times there has been no free registers
system.switch_cpus0.rename.RenamedOperands    210197082                       # Number of destination operands rename has renamed
system.switch_cpus0.rename.RenameLookups    697184581                       # Number of register rename lookups that rename has made
system.switch_cpus0.rename.int_rename_lookups    697184581                       # Number of integer rename lookups
system.switch_cpus0.rename.CommittedMaps    170695495                       # Number of HB maps that are committed
system.switch_cpus0.rename.UndoneMaps        39501564                       # Number of HB maps that are undone due to squashing
system.switch_cpus0.rename.serializingInsts        37251                       # count of serializing insts renamed
system.switch_cpus0.rename.tempSerializingInsts        20708                       # count of temporary serializing insts renamed
system.switch_cpus0.rename.skidInsts          4730328                       # count of insts added to the skid buffer
system.switch_cpus0.memDep0.insertedLoads     14521247                       # Number of loads inserted to the mem dependence unit.
system.switch_cpus0.memDep0.insertedStores      7213868                       # Number of stores inserted to the mem dependence unit.
system.switch_cpus0.memDep0.conflictingLoads       132725                       # Number of conflicting loads.
system.switch_cpus0.memDep0.conflictingStores      1598229                       # Number of conflicting stores.
system.switch_cpus0.iq.iqInstsAdded         148341833                       # Number of instructions added to the IQ (excludes non-spec)
system.switch_cpus0.iq.iqNonSpecInstsAdded        37232                       # Number of non-speculative instructions added to the IQ
system.switch_cpus0.iq.iqInstsIssued        139358807                       # Number of instructions issued
system.switch_cpus0.iq.iqSquashedInstsIssued       143812                       # Number of squashed instructions issued
system.switch_cpus0.iq.iqSquashedInstsExamined     24733972                       # Number of squashed instructions iterated over during squash; mainly for profiling
system.switch_cpus0.iq.iqSquashedOperandsExamined     51428052                       # Number of squashed operands that are examined and possibly removed from graph
system.switch_cpus0.iq.iqSquashedNonSpecRemoved         4164                       # Number of squashed non-spec instructions that were removed
system.switch_cpus0.iq.issued_per_cycle::samples    221009109                       # Number of insts issued each cycle
system.switch_cpus0.iq.issued_per_cycle::mean     0.630557                       # Number of insts issued each cycle
system.switch_cpus0.iq.issued_per_cycle::stdev     1.301765                       # Number of insts issued each cycle
system.switch_cpus0.iq.issued_per_cycle::underflows            0      0.00%      0.00% # Number of insts issued each cycle
system.switch_cpus0.iq.issued_per_cycle::0    160922503     72.81%     72.81% # Number of insts issued each cycle
system.switch_cpus0.iq.issued_per_cycle::1     25759025     11.66%     84.47% # Number of insts issued each cycle
system.switch_cpus0.iq.issued_per_cycle::2     12490225      5.65%     90.12% # Number of insts issued each cycle
system.switch_cpus0.iq.issued_per_cycle::3      8333627      3.77%     93.89% # Number of insts issued each cycle
system.switch_cpus0.iq.issued_per_cycle::4      7723943      3.49%     97.38% # Number of insts issued each cycle
system.switch_cpus0.iq.issued_per_cycle::5      2592945      1.17%     98.56% # Number of insts issued each cycle
system.switch_cpus0.iq.issued_per_cycle::6      2679161      1.21%     99.77% # Number of insts issued each cycle
system.switch_cpus0.iq.issued_per_cycle::7       378452      0.17%     99.94% # Number of insts issued each cycle
system.switch_cpus0.iq.issued_per_cycle::8       129228      0.06%    100.00% # Number of insts issued each cycle
system.switch_cpus0.iq.issued_per_cycle::overflows            0      0.00%    100.00% # Number of insts issued each cycle
system.switch_cpus0.iq.issued_per_cycle::min_value            0                       # Number of insts issued each cycle
system.switch_cpus0.iq.issued_per_cycle::max_value            8                       # Number of insts issued each cycle
system.switch_cpus0.iq.issued_per_cycle::total    221009109                       # Number of insts issued each cycle
system.switch_cpus0.iq.fu_full::No_OpClass            0      0.00%      0.00% # attempts to use FU when none available
system.switch_cpus0.iq.fu_full::IntAlu         400550     59.24%     59.24% # attempts to use FU when none available
system.switch_cpus0.iq.fu_full::IntMult             0      0.00%     59.24% # attempts to use FU when none available
system.switch_cpus0.iq.fu_full::IntDiv              0      0.00%     59.24% # attempts to use FU when none available
system.switch_cpus0.iq.fu_full::FloatAdd            0      0.00%     59.24% # attempts to use FU when none available
system.switch_cpus0.iq.fu_full::FloatCmp            0      0.00%     59.24% # attempts to use FU when none available
system.switch_cpus0.iq.fu_full::FloatCvt            0      0.00%     59.24% # attempts to use FU when none available
system.switch_cpus0.iq.fu_full::FloatMult            0      0.00%     59.24% # attempts to use FU when none available
system.switch_cpus0.iq.fu_full::FloatDiv            0      0.00%     59.24% # attempts to use FU when none available
system.switch_cpus0.iq.fu_full::FloatSqrt            0      0.00%     59.24% # attempts to use FU when none available
system.switch_cpus0.iq.fu_full::SimdAdd             0      0.00%     59.24% # attempts to use FU when none available
system.switch_cpus0.iq.fu_full::SimdAddAcc            0      0.00%     59.24% # attempts to use FU when none available
system.switch_cpus0.iq.fu_full::SimdAlu             0      0.00%     59.24% # attempts to use FU when none available
system.switch_cpus0.iq.fu_full::SimdCmp             0      0.00%     59.24% # attempts to use FU when none available
system.switch_cpus0.iq.fu_full::SimdCvt             0      0.00%     59.24% # attempts to use FU when none available
system.switch_cpus0.iq.fu_full::SimdMisc            0      0.00%     59.24% # attempts to use FU when none available
system.switch_cpus0.iq.fu_full::SimdMult            0      0.00%     59.24% # attempts to use FU when none available
system.switch_cpus0.iq.fu_full::SimdMultAcc            0      0.00%     59.24% # attempts to use FU when none available
system.switch_cpus0.iq.fu_full::SimdShift            0      0.00%     59.24% # attempts to use FU when none available
system.switch_cpus0.iq.fu_full::SimdShiftAcc            0      0.00%     59.24% # attempts to use FU when none available
system.switch_cpus0.iq.fu_full::SimdSqrt            0      0.00%     59.24% # attempts to use FU when none available
system.switch_cpus0.iq.fu_full::SimdFloatAdd            0      0.00%     59.24% # attempts to use FU when none available
system.switch_cpus0.iq.fu_full::SimdFloatAlu            0      0.00%     59.24% # attempts to use FU when none available
system.switch_cpus0.iq.fu_full::SimdFloatCmp            0      0.00%     59.24% # attempts to use FU when none available
system.switch_cpus0.iq.fu_full::SimdFloatCvt            0      0.00%     59.24% # attempts to use FU when none available
system.switch_cpus0.iq.fu_full::SimdFloatDiv            0      0.00%     59.24% # attempts to use FU when none available
system.switch_cpus0.iq.fu_full::SimdFloatMisc            0      0.00%     59.24% # attempts to use FU when none available
system.switch_cpus0.iq.fu_full::SimdFloatMult            0      0.00%     59.24% # attempts to use FU when none available
system.switch_cpus0.iq.fu_full::SimdFloatMultAcc            0      0.00%     59.24% # attempts to use FU when none available
system.switch_cpus0.iq.fu_full::SimdFloatSqrt            0      0.00%     59.24% # attempts to use FU when none available
system.switch_cpus0.iq.fu_full::MemRead        137136     20.28%     79.53% # attempts to use FU when none available
system.switch_cpus0.iq.fu_full::MemWrite       138430     20.47%    100.00% # attempts to use FU when none available
system.switch_cpus0.iq.fu_full::IprAccess            0      0.00%    100.00% # attempts to use FU when none available
system.switch_cpus0.iq.fu_full::InstPrefetch            0      0.00%    100.00% # attempts to use FU when none available
system.switch_cpus0.iq.FU_type_0::No_OpClass            0      0.00%      0.00% # Type of FU issued
system.switch_cpus0.iq.FU_type_0::IntAlu    117052029     83.99%     83.99% # Type of FU issued
system.switch_cpus0.iq.FU_type_0::IntMult      2113091      1.52%     85.51% # Type of FU issued
system.switch_cpus0.iq.FU_type_0::IntDiv            0      0.00%     85.51% # Type of FU issued
system.switch_cpus0.iq.FU_type_0::FloatAdd            0      0.00%     85.51% # Type of FU issued
system.switch_cpus0.iq.FU_type_0::FloatCmp            0      0.00%     85.51% # Type of FU issued
system.switch_cpus0.iq.FU_type_0::FloatCvt            0      0.00%     85.51% # Type of FU issued
system.switch_cpus0.iq.FU_type_0::FloatMult            0      0.00%     85.51% # Type of FU issued
system.switch_cpus0.iq.FU_type_0::FloatDiv            0      0.00%     85.51% # Type of FU issued
system.switch_cpus0.iq.FU_type_0::FloatSqrt            0      0.00%     85.51% # Type of FU issued
system.switch_cpus0.iq.FU_type_0::SimdAdd            0      0.00%     85.51% # Type of FU issued
system.switch_cpus0.iq.FU_type_0::SimdAddAcc            0      0.00%     85.51% # Type of FU issued
system.switch_cpus0.iq.FU_type_0::SimdAlu            0      0.00%     85.51% # Type of FU issued
system.switch_cpus0.iq.FU_type_0::SimdCmp            0      0.00%     85.51% # Type of FU issued
system.switch_cpus0.iq.FU_type_0::SimdCvt            0      0.00%     85.51% # Type of FU issued
system.switch_cpus0.iq.FU_type_0::SimdMisc            0      0.00%     85.51% # Type of FU issued
system.switch_cpus0.iq.FU_type_0::SimdMult            0      0.00%     85.51% # Type of FU issued
system.switch_cpus0.iq.FU_type_0::SimdMultAcc            0      0.00%     85.51% # Type of FU issued
system.switch_cpus0.iq.FU_type_0::SimdShift            0      0.00%     85.51% # Type of FU issued
system.switch_cpus0.iq.FU_type_0::SimdShiftAcc            0      0.00%     85.51% # Type of FU issued
system.switch_cpus0.iq.FU_type_0::SimdSqrt            0      0.00%     85.51% # Type of FU issued
system.switch_cpus0.iq.FU_type_0::SimdFloatAdd            0      0.00%     85.51% # Type of FU issued
system.switch_cpus0.iq.FU_type_0::SimdFloatAlu            0      0.00%     85.51% # Type of FU issued
system.switch_cpus0.iq.FU_type_0::SimdFloatCmp            0      0.00%     85.51% # Type of FU issued
system.switch_cpus0.iq.FU_type_0::SimdFloatCvt            0      0.00%     85.51% # Type of FU issued
system.switch_cpus0.iq.FU_type_0::SimdFloatDiv            0      0.00%     85.51% # Type of FU issued
system.switch_cpus0.iq.FU_type_0::SimdFloatMisc        16534      0.01%     85.52% # Type of FU issued
system.switch_cpus0.iq.FU_type_0::SimdFloatMult            0      0.00%     85.52% # Type of FU issued
system.switch_cpus0.iq.FU_type_0::SimdFloatMultAcc            0      0.00%     85.52% # Type of FU issued
system.switch_cpus0.iq.FU_type_0::SimdFloatSqrt            0      0.00%     85.52% # Type of FU issued
system.switch_cpus0.iq.FU_type_0::MemRead     13020431      9.34%     94.86% # Type of FU issued
system.switch_cpus0.iq.FU_type_0::MemWrite      7156722      5.14%    100.00% # Type of FU issued
system.switch_cpus0.iq.FU_type_0::IprAccess            0      0.00%    100.00% # Type of FU issued
system.switch_cpus0.iq.FU_type_0::InstPrefetch            0      0.00%    100.00% # Type of FU issued
system.switch_cpus0.iq.FU_type_0::total     139358807                       # Type of FU issued
system.switch_cpus0.iq.rate                  0.573987                       # Inst issue rate
system.switch_cpus0.iq.fu_busy_cnt             676116                       # FU busy when requested
system.switch_cpus0.iq.fu_busy_rate          0.004852                       # FU busy rate (busy events/executed inst)
system.switch_cpus0.iq.int_inst_queue_reads    500546649                       # Number of integer instruction queue reads
system.switch_cpus0.iq.int_inst_queue_writes    173113512                       # Number of integer instruction queue writes
system.switch_cpus0.iq.int_inst_queue_wakeup_accesses    135784896                       # Number of integer instruction queue wakeup accesses
system.switch_cpus0.iq.fp_inst_queue_reads            0                       # Number of floating instruction queue reads
system.switch_cpus0.iq.fp_inst_queue_writes            0                       # Number of floating instruction queue writes
system.switch_cpus0.iq.fp_inst_queue_wakeup_accesses            0                       # Number of floating instruction queue wakeup accesses
system.switch_cpus0.iq.int_alu_accesses     140034923                       # Number of integer alu accesses
system.switch_cpus0.iq.fp_alu_accesses              0                       # Number of floating point alu accesses
system.switch_cpus0.iew.lsq.thread0.forwLoads       348881                       # Number of loads that had data forwarded from stores
system.switch_cpus0.iew.lsq.thread0.invAddrLoads            0                       # Number of loads ignored due to an invalid address
system.switch_cpus0.iew.lsq.thread0.squashedLoads      3287310                       # Number of loads squashed
system.switch_cpus0.iew.lsq.thread0.ignoredResponses         1042                       # Number of memory responses ignored because the instruction is squashed
system.switch_cpus0.iew.lsq.thread0.memOrderViolation          475                       # Number of memory ordering violations
system.switch_cpus0.iew.lsq.thread0.squashedStores       188142                       # Number of stores squashed
system.switch_cpus0.iew.lsq.thread0.invAddrSwpfs            0                       # Number of software prefetches ignored due to an invalid address
system.switch_cpus0.iew.lsq.thread0.blockedLoads            0                       # Number of blocked loads due to partial load-store forwarding
system.switch_cpus0.iew.lsq.thread0.rescheduledLoads            1                       # Number of loads that were rescheduled
system.switch_cpus0.iew.lsq.thread0.cacheBlocked            0                       # Number of times an access to memory failed due to the cache being blocked
system.switch_cpus0.iew.iewIdleCycles               0                       # Number of cycles IEW is idle
system.switch_cpus0.iew.iewSquashCycles       4067348                       # Number of cycles IEW is squashing
system.switch_cpus0.iew.iewBlockCycles        1094853                       # Number of cycles IEW is blocking
system.switch_cpus0.iew.iewUnblockCycles        97492                       # Number of cycles IEW is unblocking
system.switch_cpus0.iew.iewDispatchedInsts    148379065                       # Number of instructions dispatched to IQ
system.switch_cpus0.iew.iewDispSquashedInsts        10014                       # Number of squashed instructions skipped by dispatch
system.switch_cpus0.iew.iewDispLoadInsts     14521247                       # Number of dispatched load instructions
system.switch_cpus0.iew.iewDispStoreInsts      7213868                       # Number of dispatched store instructions
system.switch_cpus0.iew.iewDispNonSpecInsts        20698                       # Number of dispatched non-speculative instructions
system.switch_cpus0.iew.iewIQFullEvents         82486                       # Number of times the IQ has become full, causing a stall
system.switch_cpus0.iew.iewLSQFullEvents            0                       # Number of times the LSQ has become full, causing a stall
system.switch_cpus0.iew.memOrderViolationEvents          475                       # Number of memory order violations
system.switch_cpus0.iew.predictedTakenIncorrect      1101119                       # Number of branches that were predicted taken incorrectly
system.switch_cpus0.iew.predictedNotTakenIncorrect      1136674                       # Number of branches that were predicted not taken incorrectly
system.switch_cpus0.iew.branchMispredicts      2237793                       # Number of branch mispredicts detected at execute
system.switch_cpus0.iew.iewExecutedInsts    136816402                       # Number of executed instructions
system.switch_cpus0.iew.iewExecLoadInsts     12572291                       # Number of load instructions executed
system.switch_cpus0.iew.iewExecSquashedInsts      2542403                       # Number of squashed instructions skipped in execute
system.switch_cpus0.iew.exec_swp                    0                       # number of swp insts executed
system.switch_cpus0.iew.exec_nop                    0                       # number of nop insts executed
system.switch_cpus0.iew.exec_refs            19727696                       # number of memory reference insts executed
system.switch_cpus0.iew.exec_branches        19399196                       # Number of branches executed
system.switch_cpus0.iew.exec_stores           7155405                       # Number of stores executed
system.switch_cpus0.iew.exec_rate            0.563516                       # Inst execution rate
system.switch_cpus0.iew.wb_sent             135785517                       # cumulative count of insts sent to commit
system.switch_cpus0.iew.wb_count            135784896                       # cumulative count of insts written-back
system.switch_cpus0.iew.wb_producers         80417424                       # num instructions producing a value
system.switch_cpus0.iew.wb_consumers        221955846                       # num instructions consuming a value
system.switch_cpus0.iew.wb_penalized                0                       # number of instrctions required to write to 'other' IQ
system.switch_cpus0.iew.wb_rate              0.559267                       # insts written-back per cycle
system.switch_cpus0.iew.wb_fanout            0.362313                       # average fanout of values written-back
system.switch_cpus0.iew.wb_penalized_rate            0                       # fraction of instructions written-back that wrote to 'other' IQ
system.switch_cpus0.commit.commitCommittedInsts    100000004                       # The number of committed instructions
system.switch_cpus0.commit.commitCommittedOps    122809383                       # The number of committed instructions
system.switch_cpus0.commit.commitSquashedInsts     25571189                       # The number of squashed insts skipped by commit
system.switch_cpus0.commit.commitNonSpecStalls        33068                       # The number of times commit has been forced to stall to communicate backwards
system.switch_cpus0.commit.branchMispredicts      2017971                       # The number of times a branch was mispredicted
system.switch_cpus0.commit.committed_per_cycle::samples    216941761                       # Number of insts commited each cycle
system.switch_cpus0.commit.committed_per_cycle::mean     0.566094                       # Number of insts commited each cycle
system.switch_cpus0.commit.committed_per_cycle::stdev     1.370533                       # Number of insts commited each cycle
system.switch_cpus0.commit.committed_per_cycle::underflows            0      0.00%      0.00% # Number of insts commited each cycle
system.switch_cpus0.commit.committed_per_cycle::0    165360559     76.22%     76.22% # Number of insts commited each cycle
system.switch_cpus0.commit.committed_per_cycle::1     24277721     11.19%     87.41% # Number of insts commited each cycle
system.switch_cpus0.commit.committed_per_cycle::2     10605458      4.89%     92.30% # Number of insts commited each cycle
system.switch_cpus0.commit.committed_per_cycle::3      6018840      2.77%     95.08% # Number of insts commited each cycle
system.switch_cpus0.commit.committed_per_cycle::4      4358607      2.01%     97.09% # Number of insts commited each cycle
system.switch_cpus0.commit.committed_per_cycle::5      1711457      0.79%     97.88% # Number of insts commited each cycle
system.switch_cpus0.commit.committed_per_cycle::6      1322988      0.61%     98.49% # Number of insts commited each cycle
system.switch_cpus0.commit.committed_per_cycle::7       954463      0.44%     98.93% # Number of insts commited each cycle
system.switch_cpus0.commit.committed_per_cycle::8      2331668      1.07%    100.00% # Number of insts commited each cycle
system.switch_cpus0.commit.committed_per_cycle::overflows            0      0.00%    100.00% # Number of insts commited each cycle
system.switch_cpus0.commit.committed_per_cycle::min_value            0                       # Number of insts commited each cycle
system.switch_cpus0.commit.committed_per_cycle::max_value            8                       # Number of insts commited each cycle
system.switch_cpus0.commit.committed_per_cycle::total    216941761                       # Number of insts commited each cycle
system.switch_cpus0.commit.committedInsts    100000004                       # Number of instructions committed
system.switch_cpus0.commit.committedOps     122809383                       # Number of ops (including micro ops) committed
system.switch_cpus0.commit.swp_count                0                       # Number of s/w prefetches committed
system.switch_cpus0.commit.refs              18259663                       # Number of memory references committed
system.switch_cpus0.commit.loads             11233937                       # Number of loads committed
system.switch_cpus0.commit.membars              16534                       # Number of memory barriers committed
system.switch_cpus0.commit.branches          17645452                       # Number of branches committed
system.switch_cpus0.commit.fp_insts                 0                       # Number of committed floating point instructions.
system.switch_cpus0.commit.int_insts        110655559                       # Number of committed integer instructions.
system.switch_cpus0.commit.function_calls      2500186                       # Number of function calls committed.
system.switch_cpus0.commit.bw_lim_events      2331668                       # number cycles where commit BW limit reached
system.switch_cpus0.commit.bw_limited               0                       # number of insts not committed due to BW limits
system.switch_cpus0.rob.rob_reads           362990665                       # The number of ROB reads
system.switch_cpus0.rob.rob_writes          300828587                       # The number of ROB writes
system.switch_cpus0.timesIdled                3011370                       # Number of times that the entire CPU went into an idle state and unscheduled itself
system.switch_cpus0.idleCycles               21781724                       # Total number of cycles that the CPU has spent unscheduled due to idling
system.switch_cpus0.committedInsts          100000004                       # Number of Instructions Simulated
system.switch_cpus0.committedOps            122809383                       # Number of Ops (including micro ops) Simulated
system.switch_cpus0.committedInsts_total    100000004                       # Number of Instructions Simulated
system.switch_cpus0.cpi                      2.427908                       # CPI: Cycles Per Instruction
system.switch_cpus0.cpi_total                2.427908                       # CPI: Total CPI of All Threads
system.switch_cpus0.ipc                      0.411877                       # IPC: Instructions Per Cycle
system.switch_cpus0.ipc_total                0.411877                       # IPC: Total IPC of All Threads
system.switch_cpus0.int_regfile_reads       616279888                       # number of integer regfile reads
system.switch_cpus0.int_regfile_writes      189114079                       # number of integer regfile writes
system.switch_cpus0.misc_regfile_reads      138118755                       # number of misc regfile reads
system.switch_cpus0.misc_regfile_writes         33068                       # number of misc regfile writes
system.switch_cpus1.dtb.inst_hits                   0                       # ITB inst hits
system.switch_cpus1.dtb.inst_misses                 0                       # ITB inst misses
system.switch_cpus1.dtb.read_hits                   0                       # DTB read hits
system.switch_cpus1.dtb.read_misses                 0                       # DTB read misses
system.switch_cpus1.dtb.write_hits                  0                       # DTB write hits
system.switch_cpus1.dtb.write_misses                0                       # DTB write misses
system.switch_cpus1.dtb.flush_tlb                   0                       # Number of times complete TLB was flushed
system.switch_cpus1.dtb.flush_tlb_mva               0                       # Number of times TLB was flushed by MVA
system.switch_cpus1.dtb.flush_tlb_mva_asid            0                       # Number of times TLB was flushed by MVA & ASID
system.switch_cpus1.dtb.flush_tlb_asid              0                       # Number of times TLB was flushed by ASID
system.switch_cpus1.dtb.flush_entries               0                       # Number of entries that have been flushed from TLB
system.switch_cpus1.dtb.align_faults                0                       # Number of TLB faults due to alignment restrictions
system.switch_cpus1.dtb.prefetch_faults             0                       # Number of TLB faults due to prefetch
system.switch_cpus1.dtb.domain_faults               0                       # Number of TLB faults due to domain restrictions
system.switch_cpus1.dtb.perms_faults                0                       # Number of TLB faults due to permissions restrictions
system.switch_cpus1.dtb.read_accesses               0                       # DTB read accesses
system.switch_cpus1.dtb.write_accesses              0                       # DTB write accesses
system.switch_cpus1.dtb.inst_accesses               0                       # ITB inst accesses
system.switch_cpus1.dtb.hits                        0                       # DTB hits
system.switch_cpus1.dtb.misses                      0                       # DTB misses
system.switch_cpus1.dtb.accesses                    0                       # DTB accesses
system.switch_cpus1.itb.inst_hits                   0                       # ITB inst hits
system.switch_cpus1.itb.inst_misses                 0                       # ITB inst misses
system.switch_cpus1.itb.read_hits                   0                       # DTB read hits
system.switch_cpus1.itb.read_misses                 0                       # DTB read misses
system.switch_cpus1.itb.write_hits                  0                       # DTB write hits
system.switch_cpus1.itb.write_misses                0                       # DTB write misses
system.switch_cpus1.itb.flush_tlb                   0                       # Number of times complete TLB was flushed
system.switch_cpus1.itb.flush_tlb_mva               0                       # Number of times TLB was flushed by MVA
system.switch_cpus1.itb.flush_tlb_mva_asid            0                       # Number of times TLB was flushed by MVA & ASID
system.switch_cpus1.itb.flush_tlb_asid              0                       # Number of times TLB was flushed by ASID
system.switch_cpus1.itb.flush_entries               0                       # Number of entries that have been flushed from TLB
system.switch_cpus1.itb.align_faults                0                       # Number of TLB faults due to alignment restrictions
system.switch_cpus1.itb.prefetch_faults             0                       # Number of TLB faults due to prefetch
system.switch_cpus1.itb.domain_faults               0                       # Number of TLB faults due to domain restrictions
system.switch_cpus1.itb.perms_faults                0                       # Number of TLB faults due to permissions restrictions
system.switch_cpus1.itb.read_accesses               0                       # DTB read accesses
system.switch_cpus1.itb.write_accesses              0                       # DTB write accesses
system.switch_cpus1.itb.inst_accesses               0                       # ITB inst accesses
system.switch_cpus1.itb.hits                        0                       # DTB hits
system.switch_cpus1.itb.misses                      0                       # DTB misses
system.switch_cpus1.itb.accesses                    0                       # DTB accesses
system.cpu1.workload.num_syscalls                   0                       # Number of system calls
system.switch_cpus1.numCycles               242790833                       # number of cpu cycles simulated
system.switch_cpus1.numWorkItemsStarted             0                       # number of work items this cpu started
system.switch_cpus1.numWorkItemsCompleted            0                       # number of work items this cpu completed
system.switch_cpus1.BPredUnit.lookups        21714972                       # Number of BP lookups
system.switch_cpus1.BPredUnit.condPredicted     17821786                       # Number of conditional branches predicted
system.switch_cpus1.BPredUnit.condIncorrect      2023785                       # Number of conditional branches incorrect
system.switch_cpus1.BPredUnit.BTBLookups      8877160                       # Number of BTB lookups
system.switch_cpus1.BPredUnit.BTBHits         8530131                       # Number of BTB hits
system.switch_cpus1.BPredUnit.BTBCorrect            0                       # Number of correct BTB predictions (this stat may not work properly.
system.switch_cpus1.BPredUnit.usedRAS         2161036                       # Number of times the RAS was used to get a target.
system.switch_cpus1.BPredUnit.RASInCorrect        94974                       # Number of incorrect RAS predictions.
system.switch_cpus1.fetch.icacheStallCycles    194375605                       # Number of cycles fetch is stalled on an Icache miss
system.switch_cpus1.fetch.Insts             119211347                       # Number of instructions fetch has processed
system.switch_cpus1.fetch.Branches           21714972                       # Number of branches that fetch encountered
system.switch_cpus1.fetch.predictedBranches     10691167                       # Number of branches that fetch has predicted taken
system.switch_cpus1.fetch.Cycles             25696265                       # Number of cycles fetch has run and was not squashing or blocked
system.switch_cpus1.fetch.SquashCycles        5634608                       # Number of cycles fetch has spent squashing
system.switch_cpus1.fetch.BlockedCycles       5973922                       # Number of cycles fetch has spent blocked
system.switch_cpus1.fetch.CacheLines         11756214                       # Number of cache lines fetched
system.switch_cpus1.fetch.IcacheSquashes      2014800                       # Number of outstanding Icache misses that were squashed
system.switch_cpus1.fetch.rateDist::samples    229639069                       # Number of instructions fetched each cycle (Total)
system.switch_cpus1.fetch.rateDist::mean     0.636465                       # Number of instructions fetched each cycle (Total)
system.switch_cpus1.fetch.rateDist::stdev     1.998461                       # Number of instructions fetched each cycle (Total)
system.switch_cpus1.fetch.rateDist::underflows            0      0.00%      0.00% # Number of instructions fetched each cycle (Total)
system.switch_cpus1.fetch.rateDist::0       203942804     88.81%     88.81% # Number of instructions fetched each cycle (Total)
system.switch_cpus1.fetch.rateDist::1         1931477      0.84%     89.65% # Number of instructions fetched each cycle (Total)
system.switch_cpus1.fetch.rateDist::2         3471374      1.51%     91.16% # Number of instructions fetched each cycle (Total)
system.switch_cpus1.fetch.rateDist::3         2045102      0.89%     92.05% # Number of instructions fetched each cycle (Total)
system.switch_cpus1.fetch.rateDist::4         1679309      0.73%     92.78% # Number of instructions fetched each cycle (Total)
system.switch_cpus1.fetch.rateDist::5         1471458      0.64%     93.43% # Number of instructions fetched each cycle (Total)
system.switch_cpus1.fetch.rateDist::6          827268      0.36%     93.79% # Number of instructions fetched each cycle (Total)
system.switch_cpus1.fetch.rateDist::7         2052704      0.89%     94.68% # Number of instructions fetched each cycle (Total)
system.switch_cpus1.fetch.rateDist::8        12217573      5.32%    100.00% # Number of instructions fetched each cycle (Total)
system.switch_cpus1.fetch.rateDist::overflows            0      0.00%    100.00% # Number of instructions fetched each cycle (Total)
system.switch_cpus1.fetch.rateDist::min_value            0                       # Number of instructions fetched each cycle (Total)
system.switch_cpus1.fetch.rateDist::max_value            8                       # Number of instructions fetched each cycle (Total)
system.switch_cpus1.fetch.rateDist::total    229639069                       # Number of instructions fetched each cycle (Total)
system.switch_cpus1.fetch.branchRate         0.089439                       # Number of branch fetches per cycle
system.switch_cpus1.fetch.rate               0.491004                       # Number of inst fetches per cycle
system.switch_cpus1.decode.IdleCycles       192752893                       # Number of cycles decode is idle
system.switch_cpus1.decode.BlockedCycles      7608893                       # Number of cycles decode is blocked
system.switch_cpus1.decode.RunCycles         25621195                       # Number of cycles decode is running
system.switch_cpus1.decode.UnblockCycles        63019                       # Number of cycles decode is unblocking
system.switch_cpus1.decode.SquashCycles       3593063                       # Number of cycles decode is squashing
system.switch_cpus1.decode.BranchResolved      3566736                       # Number of times decode resolved a branch
system.switch_cpus1.decode.BranchMispred          214                       # Number of times decode detected a branch misprediction
system.switch_cpus1.decode.DecodedInsts     146094846                       # Number of instructions handled by decode
system.switch_cpus1.decode.SquashedInsts         1230                       # Number of squashed instructions handled by decode
system.switch_cpus1.rename.SquashCycles       3593063                       # Number of cycles rename is squashing
system.switch_cpus1.rename.IdleCycles       193056517                       # Number of cycles rename is idle
system.switch_cpus1.rename.BlockCycles         670421                       # Number of cycles rename is blocking
system.switch_cpus1.rename.serializeStallCycles      6044878                       # count of cycles rename stalled for serializing inst
system.switch_cpus1.rename.RunCycles         25363978                       # Number of cycles rename is running
system.switch_cpus1.rename.UnblockCycles       910207                       # Number of cycles rename is unblocking
system.switch_cpus1.rename.RenamedInsts     146041907                       # Number of instructions processed by rename
system.switch_cpus1.rename.IQFullEvents         97320                       # Number of times rename has blocked due to IQ full
system.switch_cpus1.rename.LSQFullEvents       524628                       # Number of times rename has blocked due to LSQ full
system.switch_cpus1.rename.RenamedOperands    205783474                       # Number of destination operands rename has renamed
system.switch_cpus1.rename.RenameLookups    677805643                       # Number of register rename lookups that rename has made
system.switch_cpus1.rename.int_rename_lookups    677805643                       # Number of integer rename lookups
system.switch_cpus1.rename.CommittedMaps    174598685                       # Number of HB maps that are committed
system.switch_cpus1.rename.UndoneMaps        31184781                       # Number of HB maps that are undone due to squashing
system.switch_cpus1.rename.serializingInsts        34740                       # count of serializing insts renamed
system.switch_cpus1.rename.tempSerializingInsts        17394                       # count of temporary serializing insts renamed
system.switch_cpus1.rename.skidInsts          2615341                       # count of insts added to the skid buffer
system.switch_cpus1.memDep0.insertedLoads     13523150                       # Number of loads inserted to the mem dependence unit.
system.switch_cpus1.memDep0.insertedStores      7312500                       # Number of stores inserted to the mem dependence unit.
system.switch_cpus1.memDep0.conflictingLoads        71191                       # Number of conflicting loads.
system.switch_cpus1.memDep0.conflictingStores      1666733                       # Number of conflicting stores.
system.switch_cpus1.iq.iqInstsAdded         144909720                       # Number of instructions added to the IQ (excludes non-spec)
system.switch_cpus1.iq.iqNonSpecInstsAdded        34742                       # Number of non-speculative instructions added to the IQ
system.switch_cpus1.iq.iqInstsIssued        138081711                       # Number of instructions issued
system.switch_cpus1.iq.iqSquashedInstsIssued        60965                       # Number of squashed instructions issued
system.switch_cpus1.iq.iqSquashedInstsExamined     17311321                       # Number of squashed instructions iterated over during squash; mainly for profiling
system.switch_cpus1.iq.iqSquashedOperandsExamined     35879628                       # Number of squashed operands that are examined and possibly removed from graph
system.switch_cpus1.iq.iqSquashedNonSpecRemoved           46                       # Number of squashed non-spec instructions that were removed
system.switch_cpus1.iq.issued_per_cycle::samples    229639069                       # Number of insts issued each cycle
system.switch_cpus1.iq.issued_per_cycle::mean     0.601299                       # Number of insts issued each cycle
system.switch_cpus1.iq.issued_per_cycle::stdev     1.288564                       # Number of insts issued each cycle
system.switch_cpus1.iq.issued_per_cycle::underflows            0      0.00%      0.00% # Number of insts issued each cycle
system.switch_cpus1.iq.issued_per_cycle::0    172141250     74.96%     74.96% # Number of insts issued each cycle
system.switch_cpus1.iq.issued_per_cycle::1     22875440      9.96%     84.92% # Number of insts issued each cycle
system.switch_cpus1.iq.issued_per_cycle::2     11973284      5.21%     90.14% # Number of insts issued each cycle
system.switch_cpus1.iq.issued_per_cycle::3      8457303      3.68%     93.82% # Number of insts issued each cycle
system.switch_cpus1.iq.issued_per_cycle::4      8432826      3.67%     97.49% # Number of insts issued each cycle
system.switch_cpus1.iq.issued_per_cycle::5      3006809      1.31%     98.80% # Number of insts issued each cycle
system.switch_cpus1.iq.issued_per_cycle::6      2312508      1.01%     99.81% # Number of insts issued each cycle
system.switch_cpus1.iq.issued_per_cycle::7       269795      0.12%     99.93% # Number of insts issued each cycle
system.switch_cpus1.iq.issued_per_cycle::8       169854      0.07%    100.00% # Number of insts issued each cycle
system.switch_cpus1.iq.issued_per_cycle::overflows            0      0.00%    100.00% # Number of insts issued each cycle
system.switch_cpus1.iq.issued_per_cycle::min_value            0                       # Number of insts issued each cycle
system.switch_cpus1.iq.issued_per_cycle::max_value            8                       # Number of insts issued each cycle
system.switch_cpus1.iq.issued_per_cycle::total    229639069                       # Number of insts issued each cycle
system.switch_cpus1.iq.fu_full::No_OpClass            0      0.00%      0.00% # attempts to use FU when none available
system.switch_cpus1.iq.fu_full::IntAlu          50580     13.74%     13.74% # attempts to use FU when none available
system.switch_cpus1.iq.fu_full::IntMult             0      0.00%     13.74% # attempts to use FU when none available
system.switch_cpus1.iq.fu_full::IntDiv              0      0.00%     13.74% # attempts to use FU when none available
system.switch_cpus1.iq.fu_full::FloatAdd            0      0.00%     13.74% # attempts to use FU when none available
system.switch_cpus1.iq.fu_full::FloatCmp            0      0.00%     13.74% # attempts to use FU when none available
system.switch_cpus1.iq.fu_full::FloatCvt            0      0.00%     13.74% # attempts to use FU when none available
system.switch_cpus1.iq.fu_full::FloatMult            0      0.00%     13.74% # attempts to use FU when none available
system.switch_cpus1.iq.fu_full::FloatDiv            0      0.00%     13.74% # attempts to use FU when none available
system.switch_cpus1.iq.fu_full::FloatSqrt            0      0.00%     13.74% # attempts to use FU when none available
system.switch_cpus1.iq.fu_full::SimdAdd             0      0.00%     13.74% # attempts to use FU when none available
system.switch_cpus1.iq.fu_full::SimdAddAcc            0      0.00%     13.74% # attempts to use FU when none available
system.switch_cpus1.iq.fu_full::SimdAlu             0      0.00%     13.74% # attempts to use FU when none available
system.switch_cpus1.iq.fu_full::SimdCmp             0      0.00%     13.74% # attempts to use FU when none available
system.switch_cpus1.iq.fu_full::SimdCvt             0      0.00%     13.74% # attempts to use FU when none available
system.switch_cpus1.iq.fu_full::SimdMisc            0      0.00%     13.74% # attempts to use FU when none available
system.switch_cpus1.iq.fu_full::SimdMult            0      0.00%     13.74% # attempts to use FU when none available
system.switch_cpus1.iq.fu_full::SimdMultAcc            0      0.00%     13.74% # attempts to use FU when none available
system.switch_cpus1.iq.fu_full::SimdShift            0      0.00%     13.74% # attempts to use FU when none available
system.switch_cpus1.iq.fu_full::SimdShiftAcc            0      0.00%     13.74% # attempts to use FU when none available
system.switch_cpus1.iq.fu_full::SimdSqrt            0      0.00%     13.74% # attempts to use FU when none available
system.switch_cpus1.iq.fu_full::SimdFloatAdd            0      0.00%     13.74% # attempts to use FU when none available
system.switch_cpus1.iq.fu_full::SimdFloatAlu            0      0.00%     13.74% # attempts to use FU when none available
system.switch_cpus1.iq.fu_full::SimdFloatCmp            0      0.00%     13.74% # attempts to use FU when none available
system.switch_cpus1.iq.fu_full::SimdFloatCvt            0      0.00%     13.74% # attempts to use FU when none available
system.switch_cpus1.iq.fu_full::SimdFloatDiv            0      0.00%     13.74% # attempts to use FU when none available
system.switch_cpus1.iq.fu_full::SimdFloatMisc            0      0.00%     13.74% # attempts to use FU when none available
system.switch_cpus1.iq.fu_full::SimdFloatMult            0      0.00%     13.74% # attempts to use FU when none available
system.switch_cpus1.iq.fu_full::SimdFloatMultAcc            0      0.00%     13.74% # attempts to use FU when none available
system.switch_cpus1.iq.fu_full::SimdFloatSqrt            0      0.00%     13.74% # attempts to use FU when none available
system.switch_cpus1.iq.fu_full::MemRead        163595     44.45%     58.19% # attempts to use FU when none available
system.switch_cpus1.iq.fu_full::MemWrite       153895     41.81%    100.00% # attempts to use FU when none available
system.switch_cpus1.iq.fu_full::IprAccess            0      0.00%    100.00% # attempts to use FU when none available
system.switch_cpus1.iq.fu_full::InstPrefetch            0      0.00%    100.00% # attempts to use FU when none available
system.switch_cpus1.iq.FU_type_0::No_OpClass            0      0.00%      0.00% # Type of FU issued
system.switch_cpus1.iq.FU_type_0::IntAlu    116500607     84.37%     84.37% # Type of FU issued
system.switch_cpus1.iq.FU_type_0::IntMult      1896234      1.37%     85.74% # Type of FU issued
system.switch_cpus1.iq.FU_type_0::IntDiv            0      0.00%     85.74% # Type of FU issued
system.switch_cpus1.iq.FU_type_0::FloatAdd            0      0.00%     85.74% # Type of FU issued
system.switch_cpus1.iq.FU_type_0::FloatCmp            0      0.00%     85.74% # Type of FU issued
system.switch_cpus1.iq.FU_type_0::FloatCvt            0      0.00%     85.74% # Type of FU issued
system.switch_cpus1.iq.FU_type_0::FloatMult            0      0.00%     85.74% # Type of FU issued
system.switch_cpus1.iq.FU_type_0::FloatDiv            0      0.00%     85.74% # Type of FU issued
system.switch_cpus1.iq.FU_type_0::FloatSqrt            0      0.00%     85.74% # Type of FU issued
system.switch_cpus1.iq.FU_type_0::SimdAdd            0      0.00%     85.74% # Type of FU issued
system.switch_cpus1.iq.FU_type_0::SimdAddAcc            0      0.00%     85.74% # Type of FU issued
system.switch_cpus1.iq.FU_type_0::SimdAlu            0      0.00%     85.74% # Type of FU issued
system.switch_cpus1.iq.FU_type_0::SimdCmp            0      0.00%     85.74% # Type of FU issued
system.switch_cpus1.iq.FU_type_0::SimdCvt            0      0.00%     85.74% # Type of FU issued
system.switch_cpus1.iq.FU_type_0::SimdMisc            0      0.00%     85.74% # Type of FU issued
system.switch_cpus1.iq.FU_type_0::SimdMult            0      0.00%     85.74% # Type of FU issued
system.switch_cpus1.iq.FU_type_0::SimdMultAcc            0      0.00%     85.74% # Type of FU issued
system.switch_cpus1.iq.FU_type_0::SimdShift            0      0.00%     85.74% # Type of FU issued
system.switch_cpus1.iq.FU_type_0::SimdShiftAcc            0      0.00%     85.74% # Type of FU issued
system.switch_cpus1.iq.FU_type_0::SimdSqrt            0      0.00%     85.74% # Type of FU issued
system.switch_cpus1.iq.FU_type_0::SimdFloatAdd            0      0.00%     85.74% # Type of FU issued
system.switch_cpus1.iq.FU_type_0::SimdFloatAlu            0      0.00%     85.74% # Type of FU issued
system.switch_cpus1.iq.FU_type_0::SimdFloatCmp            0      0.00%     85.74% # Type of FU issued
system.switch_cpus1.iq.FU_type_0::SimdFloatCvt            0      0.00%     85.74% # Type of FU issued
system.switch_cpus1.iq.FU_type_0::SimdFloatDiv            0      0.00%     85.74% # Type of FU issued
system.switch_cpus1.iq.FU_type_0::SimdFloatMisc        17346      0.01%     85.76% # Type of FU issued
system.switch_cpus1.iq.FU_type_0::SimdFloatMult            0      0.00%     85.76% # Type of FU issued
system.switch_cpus1.iq.FU_type_0::SimdFloatMultAcc            0      0.00%     85.76% # Type of FU issued
system.switch_cpus1.iq.FU_type_0::SimdFloatSqrt            0      0.00%     85.76% # Type of FU issued
system.switch_cpus1.iq.FU_type_0::MemRead     12373505      8.96%     94.72% # Type of FU issued
system.switch_cpus1.iq.FU_type_0::MemWrite      7294019      5.28%    100.00% # Type of FU issued
system.switch_cpus1.iq.FU_type_0::IprAccess            0      0.00%    100.00% # Type of FU issued
system.switch_cpus1.iq.FU_type_0::InstPrefetch            0      0.00%    100.00% # Type of FU issued
system.switch_cpus1.iq.FU_type_0::total     138081711                       # Type of FU issued
system.switch_cpus1.iq.rate                  0.568727                       # Inst issue rate
system.switch_cpus1.iq.fu_busy_cnt             368070                       # FU busy when requested
system.switch_cpus1.iq.fu_busy_rate          0.002666                       # FU busy rate (busy events/executed inst)
system.switch_cpus1.iq.int_inst_queue_reads    506231526                       # Number of integer instruction queue reads
system.switch_cpus1.iq.int_inst_queue_writes    162256025                       # Number of integer instruction queue writes
system.switch_cpus1.iq.int_inst_queue_wakeup_accesses    135734391                       # Number of integer instruction queue wakeup accesses
system.switch_cpus1.iq.fp_inst_queue_reads            0                       # Number of floating instruction queue reads
system.switch_cpus1.iq.fp_inst_queue_writes            0                       # Number of floating instruction queue writes
system.switch_cpus1.iq.fp_inst_queue_wakeup_accesses            0                       # Number of floating instruction queue wakeup accesses
system.switch_cpus1.iq.int_alu_accesses     138449781                       # Number of integer alu accesses
system.switch_cpus1.iq.fp_alu_accesses              0                       # Number of floating point alu accesses
system.switch_cpus1.iew.lsq.thread0.forwLoads       281675                       # Number of loads that had data forwarded from stores
system.switch_cpus1.iew.lsq.thread0.invAddrLoads            0                       # Number of loads ignored due to an invalid address
system.switch_cpus1.iew.lsq.thread0.squashedLoads      2177591                       # Number of loads squashed
system.switch_cpus1.iew.lsq.thread0.ignoredResponses            7                       # Number of memory responses ignored because the instruction is squashed
system.switch_cpus1.iew.lsq.thread0.memOrderViolation          242                       # Number of memory ordering violations
system.switch_cpus1.iew.lsq.thread0.squashedStores        97470                       # Number of stores squashed
system.switch_cpus1.iew.lsq.thread0.invAddrSwpfs            0                       # Number of software prefetches ignored due to an invalid address
system.switch_cpus1.iew.lsq.thread0.blockedLoads            0                       # Number of blocked loads due to partial load-store forwarding
system.switch_cpus1.iew.lsq.thread0.rescheduledLoads            0                       # Number of loads that were rescheduled
system.switch_cpus1.iew.lsq.thread0.cacheBlocked            0                       # Number of times an access to memory failed due to the cache being blocked
system.switch_cpus1.iew.iewIdleCycles               0                       # Number of cycles IEW is idle
system.switch_cpus1.iew.iewSquashCycles       3593063                       # Number of cycles IEW is squashing
system.switch_cpus1.iew.iewBlockCycles         468556                       # Number of cycles IEW is blocking
system.switch_cpus1.iew.iewUnblockCycles        55158                       # Number of cycles IEW is unblocking
system.switch_cpus1.iew.iewDispatchedInsts    144944462                       # Number of instructions dispatched to IQ
system.switch_cpus1.iew.iewDispSquashedInsts        83621                       # Number of squashed instructions skipped by dispatch
system.switch_cpus1.iew.iewDispLoadInsts     13523150                       # Number of dispatched load instructions
system.switch_cpus1.iew.iewDispStoreInsts      7312500                       # Number of dispatched store instructions
system.switch_cpus1.iew.iewDispNonSpecInsts        17394                       # Number of dispatched non-speculative instructions
system.switch_cpus1.iew.iewIQFullEvents         45746                       # Number of times the IQ has become full, causing a stall
system.switch_cpus1.iew.iewLSQFullEvents            0                       # Number of times the LSQ has become full, causing a stall
system.switch_cpus1.iew.memOrderViolationEvents          242                       # Number of memory order violations
system.switch_cpus1.iew.predictedTakenIncorrect      1163326                       # Number of branches that were predicted taken incorrectly
system.switch_cpus1.iew.predictedNotTakenIncorrect      1059417                       # Number of branches that were predicted not taken incorrectly
system.switch_cpus1.iew.branchMispredicts      2222743                       # Number of branch mispredicts detected at execute
system.switch_cpus1.iew.iewExecutedInsts    136519138                       # Number of executed instructions
system.switch_cpus1.iew.iewExecLoadInsts     12283096                       # Number of load instructions executed
system.switch_cpus1.iew.iewExecSquashedInsts      1562573                       # Number of squashed instructions skipped in execute
system.switch_cpus1.iew.exec_swp                    0                       # number of swp insts executed
system.switch_cpus1.iew.exec_nop                    0                       # number of nop insts executed
system.switch_cpus1.iew.exec_refs            19577111                       # number of memory reference insts executed
system.switch_cpus1.iew.exec_branches        19337879                       # Number of branches executed
system.switch_cpus1.iew.exec_stores           7294015                       # Number of stores executed
system.switch_cpus1.iew.exec_rate            0.562291                       # Inst execution rate
system.switch_cpus1.iew.wb_sent             135734451                       # cumulative count of insts sent to commit
system.switch_cpus1.iew.wb_count            135734391                       # cumulative count of insts written-back
system.switch_cpus1.iew.wb_producers         79426094                       # num instructions producing a value
system.switch_cpus1.iew.wb_consumers        216311251                       # num instructions consuming a value
system.switch_cpus1.iew.wb_penalized                0                       # number of instrctions required to write to 'other' IQ
system.switch_cpus1.iew.wb_rate              0.559059                       # insts written-back per cycle
system.switch_cpus1.iew.wb_fanout            0.367184                       # average fanout of values written-back
system.switch_cpus1.iew.wb_penalized_rate            0                       # fraction of instructions written-back that wrote to 'other' IQ
system.switch_cpus1.commit.commitCommittedInsts    101516957                       # The number of committed instructions
system.switch_cpus1.commit.commitCommittedOps    125134493                       # The number of committed instructions
system.switch_cpus1.commit.commitSquashedInsts     19810223                       # The number of squashed insts skipped by commit
system.switch_cpus1.commit.commitNonSpecStalls        34696                       # The number of times commit has been forced to stall to communicate backwards
system.switch_cpus1.commit.branchMispredicts      2040965                       # The number of times a branch was mispredicted
system.switch_cpus1.commit.committed_per_cycle::samples    226046006                       # Number of insts commited each cycle
system.switch_cpus1.commit.committed_per_cycle::mean     0.553580                       # Number of insts commited each cycle
system.switch_cpus1.commit.committed_per_cycle::stdev     1.405131                       # Number of insts commited each cycle
system.switch_cpus1.commit.committed_per_cycle::underflows            0      0.00%      0.00% # Number of insts commited each cycle
system.switch_cpus1.commit.committed_per_cycle::0    174961341     77.40%     77.40% # Number of insts commited each cycle
system.switch_cpus1.commit.committed_per_cycle::1     24914702     11.02%     88.42% # Number of insts commited each cycle
system.switch_cpus1.commit.committed_per_cycle::2      9560009      4.23%     92.65% # Number of insts commited each cycle
system.switch_cpus1.commit.committed_per_cycle::3      5035383      2.23%     94.88% # Number of insts commited each cycle
system.switch_cpus1.commit.committed_per_cycle::4      4271734      1.89%     96.77% # Number of insts commited each cycle
system.switch_cpus1.commit.committed_per_cycle::5      2032957      0.90%     97.67% # Number of insts commited each cycle
system.switch_cpus1.commit.committed_per_cycle::6       957693      0.42%     98.09% # Number of insts commited each cycle
system.switch_cpus1.commit.committed_per_cycle::7      1501751      0.66%     98.76% # Number of insts commited each cycle
system.switch_cpus1.commit.committed_per_cycle::8      2810436      1.24%    100.00% # Number of insts commited each cycle
system.switch_cpus1.commit.committed_per_cycle::overflows            0      0.00%    100.00% # Number of insts commited each cycle
system.switch_cpus1.commit.committed_per_cycle::min_value            0                       # Number of insts commited each cycle
system.switch_cpus1.commit.committed_per_cycle::max_value            8                       # Number of insts commited each cycle
system.switch_cpus1.commit.committed_per_cycle::total    226046006                       # Number of insts commited each cycle
system.switch_cpus1.commit.committedInsts    101516957                       # Number of instructions committed
system.switch_cpus1.commit.committedOps     125134493                       # Number of ops (including micro ops) committed
system.switch_cpus1.commit.swp_count                0                       # Number of s/w prefetches committed
system.switch_cpus1.commit.refs              18560589                       # Number of memory references committed
system.switch_cpus1.commit.loads             11345559                       # Number of loads committed
[...]
system.cpu2.icache.overall_accesses::switch_cpus2.inst     11495552                       # number of overall (read+write) accesses
system.cpu2.icache.overall_accesses::total     11495552                       # number of overall (read+write) accesses
system.cpu2.icache.ReadReq_miss_rate::switch_cpus2.inst     0.000001                       # miss rate for ReadReq accesses
system.cpu2.icache.ReadReq_miss_rate::total     0.000001                       # miss rate for ReadReq accesses
system.cpu2.icache.demand_miss_rate::switch_cpus2.inst     0.000001                       # miss rate for demand accesses
system.cpu2.icache.demand_miss_rate::total     0.000001                       # miss rate for demand accesses
system.cpu2.icache.overall_miss_rate::switch_cpus2.inst     0.000001                       # miss rate for overall accesses
system.cpu2.icache.overall_miss_rate::total     0.000001                       # miss rate for overall accesses
system.cpu2.icache.ReadReq_avg_miss_latency::switch_cpus2.inst 204711.750000                       # average ReadReq miss latency
system.cpu2.icache.ReadReq_avg_miss_latency::total 204711.750000                       # average ReadReq miss latency
system.cpu2.icache.demand_avg_miss_latency::switch_cpus2.inst 204711.750000                       # average overall miss latency
system.cpu2.icache.demand_avg_miss_latency::total 204711.750000                       # average overall miss latency
system.cpu2.icache.overall_avg_miss_latency::switch_cpus2.inst 204711.750000                       # average overall miss latency
system.cpu2.icache.overall_avg_miss_latency::total 204711.750000                       # average overall miss latency
system.cpu2.icache.blocked_cycles::no_mshrs            0                       # number of cycles access was blocked
system.cpu2.icache.blocked_cycles::no_targets            0                       # number of cycles access was blocked
system.cpu2.icache.blocked::no_mshrs                0                       # number of cycles access was blocked
system.cpu2.icache.blocked::no_targets              0                       # number of cycles access was blocked
system.cpu2.icache.avg_blocked_cycles::no_mshrs          nan                       # average number of cycles each access was blocked
system.cpu2.icache.avg_blocked_cycles::no_targets          nan                       # average number of cycles each access was blocked
system.cpu2.icache.fast_writes                      0                       # number of fast writes performed
system.cpu2.icache.cache_copies                     0                       # number of cache copies performed
system.cpu2.icache.ReadReq_mshr_hits::switch_cpus2.inst            2                       # number of ReadReq MSHR hits
system.cpu2.icache.ReadReq_mshr_hits::total            2                       # number of ReadReq MSHR hits
system.cpu2.icache.demand_mshr_hits::switch_cpus2.inst            2                       # number of demand (read+write) MSHR hits
system.cpu2.icache.demand_mshr_hits::total            2                       # number of demand (read+write) MSHR hits
system.cpu2.icache.overall_mshr_hits::switch_cpus2.inst            2                       # number of overall MSHR hits
system.cpu2.icache.overall_mshr_hits::total            2                       # number of overall MSHR hits
system.cpu2.icache.ReadReq_mshr_misses::switch_cpus2.inst           10                       # number of ReadReq MSHR misses
system.cpu2.icache.ReadReq_mshr_misses::total           10                       # number of ReadReq MSHR misses
system.cpu2.icache.demand_mshr_misses::switch_cpus2.inst           10                       # number of demand (read+write) MSHR misses
system.cpu2.icache.demand_mshr_misses::total           10                       # number of demand (read+write) MSHR misses
system.cpu2.icache.overall_mshr_misses::switch_cpus2.inst           10                       # number of overall MSHR misses
system.cpu2.icache.overall_mshr_misses::total           10                       # number of overall MSHR misses
system.cpu2.icache.ReadReq_mshr_miss_latency::switch_cpus2.inst      2080790                       # number of ReadReq MSHR miss cycles
system.cpu2.icache.ReadReq_mshr_miss_latency::total      2080790                       # number of ReadReq MSHR miss cycles
system.cpu2.icache.demand_mshr_miss_latency::switch_cpus2.inst      2080790                       # number of demand (read+write) MSHR miss cycles
system.cpu2.icache.demand_mshr_miss_latency::total      2080790                       # number of demand (read+write) MSHR miss cycles
system.cpu2.icache.overall_mshr_miss_latency::switch_cpus2.inst      2080790                       # number of overall MSHR miss cycles
system.cpu2.icache.overall_mshr_miss_latency::total      2080790                       # number of overall MSHR miss cycles
system.cpu2.icache.ReadReq_mshr_miss_rate::switch_cpus2.inst     0.000001                       # mshr miss rate for ReadReq accesses
system.cpu2.icache.ReadReq_mshr_miss_rate::total     0.000001                       # mshr miss rate for ReadReq accesses
system.cpu2.icache.demand_mshr_miss_rate::switch_cpus2.inst     0.000001                       # mshr miss rate for demand accesses
system.cpu2.icache.demand_mshr_miss_rate::total     0.000001                       # mshr miss rate for demand accesses
system.cpu2.icache.overall_mshr_miss_rate::switch_cpus2.inst     0.000001                       # mshr miss rate for overall accesses
system.cpu2.icache.overall_mshr_miss_rate::total     0.000001                       # mshr miss rate for overall accesses
system.cpu2.icache.ReadReq_avg_mshr_miss_latency::switch_cpus2.inst       208079                       # average ReadReq mshr miss latency
system.cpu2.icache.ReadReq_avg_mshr_miss_latency::total       208079                       # average ReadReq mshr miss latency
system.cpu2.icache.demand_avg_mshr_miss_latency::switch_cpus2.inst       208079                       # average overall mshr miss latency
system.cpu2.icache.demand_avg_mshr_miss_latency::total       208079                       # average overall mshr miss latency
system.cpu2.icache.overall_avg_mshr_miss_latency::switch_cpus2.inst       208079                       # average overall mshr miss latency
system.cpu2.icache.overall_avg_mshr_miss_latency::total       208079                       # average overall mshr miss latency
system.cpu2.icache.no_allocate_misses               0                       # Number of misses that were no-allocate
system.cpu2.dcache.replacements                 92780                       # number of replacements
system.cpu2.dcache.tagsinuse                      256                       # Cycle average of tags in use
system.cpu2.dcache.total_refs               189651079                       # Total number of references to valid blocks.
system.cpu2.dcache.sampled_refs                 93036                       # Sample count of references to valid blocks.
system.cpu2.dcache.avg_refs               2038.469829                       # Average number of references to valid blocks.
system.cpu2.dcache.warmup_cycle                     0                       # Cycle when the warmup percentage was hit.
system.cpu2.dcache.occ_blocks::switch_cpus2.data   234.625526                       # Average occupied blocks per requestor
system.cpu2.dcache.occ_blocks::cpu2.data    21.374474                       # Average occupied blocks per requestor
system.cpu2.dcache.occ_percent::switch_cpus2.data     0.916506                       # Average percentage of cache occupancy
system.cpu2.dcache.occ_percent::cpu2.data     0.083494                       # Average percentage of cache occupancy
system.cpu2.dcache.occ_percent::total               1                       # Average percentage of cache occupancy
system.cpu2.dcache.ReadReq_hits::switch_cpus2.data     10097368                       # number of ReadReq hits
system.cpu2.dcache.ReadReq_hits::total       10097368                       # number of ReadReq hits
system.cpu2.dcache.WriteReq_hits::switch_cpus2.data      7468657                       # number of WriteReq hits
system.cpu2.dcache.WriteReq_hits::total       7468657                       # number of WriteReq hits
system.cpu2.dcache.LoadLockedReq_hits::switch_cpus2.data        16001                       # number of LoadLockedReq hits
system.cpu2.dcache.LoadLockedReq_hits::total        16001                       # number of LoadLockedReq hits
system.cpu2.dcache.StoreCondReq_hits::switch_cpus2.data        15674                       # number of StoreCondReq hits
system.cpu2.dcache.StoreCondReq_hits::total        15674                       # number of StoreCondReq hits
system.cpu2.dcache.demand_hits::switch_cpus2.data     17566025                       # number of demand (read+write) hits
system.cpu2.dcache.demand_hits::total        17566025                       # number of demand (read+write) hits
system.cpu2.dcache.overall_hits::switch_cpus2.data     17566025                       # number of overall hits
system.cpu2.dcache.overall_hits::total       17566025                       # number of overall hits
system.cpu2.dcache.ReadReq_misses::switch_cpus2.data       386342                       # number of ReadReq misses
system.cpu2.dcache.ReadReq_misses::total       386342                       # number of ReadReq misses
system.cpu2.dcache.WriteReq_misses::switch_cpus2.data           70                       # number of WriteReq misses
system.cpu2.dcache.WriteReq_misses::total           70                       # number of WriteReq misses
system.cpu2.dcache.demand_misses::switch_cpus2.data       386412                       # number of demand (read+write) misses
system.cpu2.dcache.demand_misses::total        386412                       # number of demand (read+write) misses
system.cpu2.dcache.overall_misses::switch_cpus2.data       386412                       # number of overall misses
system.cpu2.dcache.overall_misses::total       386412                       # number of overall misses
system.cpu2.dcache.ReadReq_miss_latency::switch_cpus2.data  39353509853                       # number of ReadReq miss cycles
system.cpu2.dcache.ReadReq_miss_latency::total  39353509853                       # number of ReadReq miss cycles
system.cpu2.dcache.WriteReq_miss_latency::switch_cpus2.data      9762059                       # number of WriteReq miss cycles
system.cpu2.dcache.WriteReq_miss_latency::total      9762059                       # number of WriteReq miss cycles
system.cpu2.dcache.demand_miss_latency::switch_cpus2.data  39363271912                       # number of demand (read+write) miss cycles
system.cpu2.dcache.demand_miss_latency::total  39363271912                       # number of demand (read+write) miss cycles
system.cpu2.dcache.overall_miss_latency::switch_cpus2.data  39363271912                       # number of overall miss cycles
system.cpu2.dcache.overall_miss_latency::total  39363271912                       # number of overall miss cycles
system.cpu2.dcache.ReadReq_accesses::switch_cpus2.data     10483710                       # number of ReadReq accesses(hits+misses)
system.cpu2.dcache.ReadReq_accesses::total     10483710                       # number of ReadReq accesses(hits+misses)
system.cpu2.dcache.WriteReq_accesses::switch_cpus2.data      7468727                       # number of WriteReq accesses(hits+misses)
system.cpu2.dcache.WriteReq_accesses::total      7468727                       # number of WriteReq accesses(hits+misses)
system.cpu2.dcache.LoadLockedReq_accesses::switch_cpus2.data        16001                       # number of LoadLockedReq accesses(hits+misses)
system.cpu2.dcache.LoadLockedReq_accesses::total        16001                       # number of LoadLockedReq accesses(hits+misses)
system.cpu2.dcache.StoreCondReq_accesses::switch_cpus2.data        15674                       # number of StoreCondReq accesses(hits+misses)
system.cpu2.dcache.StoreCondReq_accesses::total        15674                       # number of StoreCondReq accesses(hits+misses)
system.cpu2.dcache.demand_accesses::switch_cpus2.data     17952437                       # number of demand (read+write) accesses
system.cpu2.dcache.demand_accesses::total     17952437                       # number of demand (read+write) accesses
system.cpu2.dcache.overall_accesses::switch_cpus2.data     17952437                       # number of overall (read+write) accesses
system.cpu2.dcache.overall_accesses::total     17952437                       # number of overall (read+write) accesses
system.cpu2.dcache.ReadReq_miss_rate::switch_cpus2.data     0.036852                       # miss rate for ReadReq accesses
system.cpu2.dcache.ReadReq_miss_rate::total     0.036852                       # miss rate for ReadReq accesses
system.cpu2.dcache.WriteReq_miss_rate::switch_cpus2.data     0.000009                       # miss rate for WriteReq accesses
system.cpu2.dcache.WriteReq_miss_rate::total     0.000009                       # miss rate for WriteReq accesses
system.cpu2.dcache.demand_miss_rate::switch_cpus2.data     0.021524                       # miss rate for demand accesses
system.cpu2.dcache.demand_miss_rate::total     0.021524                       # miss rate for demand accesses
system.cpu2.dcache.overall_miss_rate::switch_cpus2.data     0.021524                       # miss rate for overall accesses
system.cpu2.dcache.overall_miss_rate::total     0.021524                       # miss rate for overall accesses
system.cpu2.dcache.ReadReq_avg_miss_latency::switch_cpus2.data 101861.847412                       # average ReadReq miss latency
system.cpu2.dcache.ReadReq_avg_miss_latency::total 101861.847412                       # average ReadReq miss latency
system.cpu2.dcache.WriteReq_avg_miss_latency::switch_cpus2.data 139457.985714                       # average WriteReq miss latency
system.cpu2.dcache.WriteReq_avg_miss_latency::total 139457.985714                       # average WriteReq miss latency
system.cpu2.dcache.demand_avg_miss_latency::switch_cpus2.data 101868.658096                       # average overall miss latency
system.cpu2.dcache.demand_avg_miss_latency::total 101868.658096                       # average overall miss latency
system.cpu2.dcache.overall_avg_miss_latency::switch_cpus2.data 101868.658096                       # average overall miss latency
system.cpu2.dcache.overall_avg_miss_latency::total 101868.658096                       # average overall miss latency
system.cpu2.dcache.blocked_cycles::no_mshrs            0                       # number of cycles access was blocked
system.cpu2.dcache.blocked_cycles::no_targets            0                       # number of cycles access was blocked
system.cpu2.dcache.blocked::no_mshrs                0                       # number of cycles access was blocked
system.cpu2.dcache.blocked::no_targets              0                       # number of cycles access was blocked
system.cpu2.dcache.avg_blocked_cycles::no_mshrs          nan                       # average number of cycles each access was blocked
system.cpu2.dcache.avg_blocked_cycles::no_targets          nan                       # average number of cycles each access was blocked
system.cpu2.dcache.fast_writes                      0                       # number of fast writes performed
system.cpu2.dcache.cache_copies                     0                       # number of cache copies performed
system.cpu2.dcache.writebacks::writebacks        18100                       # number of writebacks
system.cpu2.dcache.writebacks::total            18100                       # number of writebacks
system.cpu2.dcache.ReadReq_mshr_hits::switch_cpus2.data       293562                       # number of ReadReq MSHR hits
system.cpu2.dcache.ReadReq_mshr_hits::total       293562                       # number of ReadReq MSHR hits
system.cpu2.dcache.WriteReq_mshr_hits::switch_cpus2.data           70                       # number of WriteReq MSHR hits
system.cpu2.dcache.WriteReq_mshr_hits::total           70                       # number of WriteReq MSHR hits
system.cpu2.dcache.demand_mshr_hits::switch_cpus2.data       293632                       # number of demand (read+write) MSHR hits
system.cpu2.dcache.demand_mshr_hits::total       293632                       # number of demand (read+write) MSHR hits
system.cpu2.dcache.overall_mshr_hits::switch_cpus2.data       293632                       # number of overall MSHR hits
system.cpu2.dcache.overall_mshr_hits::total       293632                       # number of overall MSHR hits
system.cpu2.dcache.ReadReq_mshr_misses::switch_cpus2.data        92780                       # number of ReadReq MSHR misses
system.cpu2.dcache.ReadReq_mshr_misses::total        92780                       # number of ReadReq MSHR misses
system.cpu2.dcache.demand_mshr_misses::switch_cpus2.data        92780                       # number of demand (read+write) MSHR misses
system.cpu2.dcache.demand_mshr_misses::total        92780                       # number of demand (read+write) MSHR misses
system.cpu2.dcache.overall_mshr_misses::switch_cpus2.data        92780                       # number of overall MSHR misses
system.cpu2.dcache.overall_mshr_misses::total        92780                       # number of overall MSHR misses
system.cpu2.dcache.ReadReq_mshr_miss_latency::switch_cpus2.data   8914295349                       # number of ReadReq MSHR miss cycles
system.cpu2.dcache.ReadReq_mshr_miss_latency::total   8914295349                       # number of ReadReq MSHR miss cycles
system.cpu2.dcache.demand_mshr_miss_latency::switch_cpus2.data   8914295349                       # number of demand (read+write) MSHR miss cycles
system.cpu2.dcache.demand_mshr_miss_latency::total   8914295349                       # number of demand (read+write) MSHR miss cycles
system.cpu2.dcache.overall_mshr_miss_latency::switch_cpus2.data   8914295349                       # number of overall MSHR miss cycles
system.cpu2.dcache.overall_mshr_miss_latency::total   8914295349                       # number of overall MSHR miss cycles
system.cpu2.dcache.ReadReq_mshr_miss_rate::switch_cpus2.data     0.008850                       # mshr miss rate for ReadReq accesses
system.cpu2.dcache.ReadReq_mshr_miss_rate::total     0.008850                       # mshr miss rate for ReadReq accesses
system.cpu2.dcache.demand_mshr_miss_rate::switch_cpus2.data     0.005168                       # mshr miss rate for demand accesses
system.cpu2.dcache.demand_mshr_miss_rate::total     0.005168                       # mshr miss rate for demand accesses
system.cpu2.dcache.overall_mshr_miss_rate::switch_cpus2.data     0.005168                       # mshr miss rate for overall accesses
system.cpu2.dcache.overall_mshr_miss_rate::total     0.005168                       # mshr miss rate for overall accesses
system.cpu2.dcache.ReadReq_avg_mshr_miss_latency::switch_cpus2.data 96079.924003                       # average ReadReq mshr miss latency
system.cpu2.dcache.ReadReq_avg_mshr_miss_latency::total 96079.924003                       # average ReadReq mshr miss latency
system.cpu2.dcache.demand_avg_mshr_miss_latency::switch_cpus2.data 96079.924003                       # average overall mshr miss latency
system.cpu2.dcache.demand_avg_mshr_miss_latency::total 96079.924003                       # average overall mshr miss latency
system.cpu2.dcache.overall_avg_mshr_miss_latency::switch_cpus2.data 96079.924003                       # average overall mshr miss latency
system.cpu2.dcache.overall_avg_mshr_miss_latency::total 96079.924003                       # average overall mshr miss latency
system.cpu2.dcache.no_allocate_misses               0                       # Number of misses that were no-allocate

---------- End Simulation Statistics   ----------
