
---------- Begin Simulation Statistics ----------
sim_seconds                                  0.105034                       # Number of seconds simulated
sim_ticks                                105033683112                       # Number of ticks simulated
final_tick                               632027580390                       # Number of ticks from beginning of simulation (restored from checkpoints and never reset)
sim_freq                                 1000000000000                       # Frequency of simulated ticks
host_inst_rate                                 114430                       # Simulator instruction rate (inst/s)
host_op_rate                                   144375                       # Simulator op (including micro ops) rate (op/s)
host_tick_rate                                5477308                       # Simulator tick rate (ticks/s)
host_mem_usage                               16887720                       # Number of bytes of host memory used
host_seconds                                 19176.15                       # Real time elapsed on the host
sim_insts                                  2194327328                       # Number of instructions simulated
sim_ops                                    2768552568                       # Number of ops (including micro ops) simulated
system.physmem.bytes_read::switch_cpus0.inst         1664                       # Number of bytes read from this memory
system.physmem.bytes_read::switch_cpus0.data      7461120                       # Number of bytes read from this memory
system.physmem.bytes_read::switch_cpus1.inst         1664                       # Number of bytes read from this memory
system.physmem.bytes_read::switch_cpus1.data      4831104                       # Number of bytes read from this memory
system.physmem.bytes_read::total             12295552                       # Number of bytes read from this memory
system.physmem.bytes_inst_read::switch_cpus0.inst         1664                       # Number of instructions bytes read from this memory
system.physmem.bytes_inst_read::switch_cpus1.inst         1664                       # Number of instructions bytes read from this memory
system.physmem.bytes_inst_read::total            3328                       # Number of instructions bytes read from this memory
system.physmem.bytes_written::writebacks      2418944                       # Number of bytes written to this memory
system.physmem.bytes_written::total           2418944                       # Number of bytes written to this memory
system.physmem.num_reads::switch_cpus0.inst           13                       # Number of read requests responded to by this memory
system.physmem.num_reads::switch_cpus0.data        58290                       # Number of read requests responded to by this memory
system.physmem.num_reads::switch_cpus1.inst           13                       # Number of read requests responded to by this memory
system.physmem.num_reads::switch_cpus1.data        37743                       # Number of read requests responded to by this memory
system.physmem.num_reads::total                 96059                       # Number of read requests responded to by this memory
system.physmem.num_writes::writebacks           18898                       # Number of write requests responded to by this memory
system.physmem.num_writes::functional               0                       # Number of write requests responded to by this memory
system.physmem.num_writes::interrupt                0                       # Number of write requests responded to by this memory
system.physmem.num_writes::switch_cpus0.dtb.walker            0                       # Number of write requests responded to by this memory
system.physmem.num_writes::switch_cpus0.itb.walker            0                       # Number of write requests responded to by this memory
system.physmem.num_writes::switch_cpus0.inst            0                       # Number of write requests responded to by this memory
system.physmem.num_writes::switch_cpus0.data            0                       # Number of write requests responded to by this memory
system.physmem.num_writes::switch_cpus1.dtb.walker            0                       # Number of write requests responded to by this memory
system.physmem.num_writes::switch_cpus1.itb.walker            0                       # Number of write requests responded to by this memory
system.physmem.num_writes::switch_cpus1.inst            0                       # Number of write requests responded to by this memory
system.physmem.num_writes::switch_cpus1.data            0                       # Number of write requests responded to by this memory
system.physmem.num_writes::cpu0.dtb.walker            0                       # Number of write requests responded to by this memory
system.physmem.num_writes::cpu0.itb.walker            0                       # Number of write requests responded to by this memory
system.physmem.num_writes::cpu0.inst                0                       # Number of write requests responded to by this memory
system.physmem.num_writes::cpu0.data                0                       # Number of write requests responded to by this memory
system.physmem.num_writes::cpu1.dtb.walker            0                       # Number of write requests responded to by this memory
system.physmem.num_writes::cpu1.itb.walker            0                       # Number of write requests responded to by this memory
system.physmem.num_writes::cpu1.inst                0                       # Number of write requests responded to by this memory
system.physmem.num_writes::cpu1.data                0                       # Number of write requests responded to by this memory
system.physmem.num_writes::total                18898                       # Number of write requests responded to by this memory
system.physmem.bw_read::switch_cpus0.inst        15843                       # Total read bandwidth from this memory (bytes/s)
system.physmem.bw_read::switch_cpus0.data     71035498                       # Total read bandwidth from this memory (bytes/s)
system.physmem.bw_read::switch_cpus1.inst        15843                       # Total read bandwidth from this memory (bytes/s)
system.physmem.bw_read::switch_cpus1.data     45995759                       # Total read bandwidth from this memory (bytes/s)
system.physmem.bw_read::total               117062942                       # Total read bandwidth from this memory (bytes/s)
system.physmem.bw_inst_read::switch_cpus0.inst        15843                       # Instruction read bandwidth from this memory (bytes/s)
system.physmem.bw_inst_read::switch_cpus1.inst        15843                       # Instruction read bandwidth from this memory (bytes/s)
system.physmem.bw_inst_read::total              31685                       # Instruction read bandwidth from this memory (bytes/s)
system.physmem.bw_write::writebacks          23030174                       # Write bandwidth from this memory (bytes/s)
system.physmem.bw_write::total               23030174                       # Write bandwidth from this memory (bytes/s)
system.physmem.bw_total::writebacks          23030174                       # Total bandwidth to/from this memory (bytes/s)
system.physmem.bw_total::switch_cpus0.inst        15843                       # Total bandwidth to/from this memory (bytes/s)
system.physmem.bw_total::switch_cpus0.data     71035498                       # Total bandwidth to/from this memory (bytes/s)
system.physmem.bw_total::switch_cpus1.inst        15843                       # Total bandwidth to/from this memory (bytes/s)
system.physmem.bw_total::switch_cpus1.data     45995759                       # Total bandwidth to/from this memory (bytes/s)
system.physmem.bw_total::total              140093116                       # Total bandwidth to/from this memory (bytes/s)
system.switch_cpus0.dtb.inst_hits                   0                       # ITB inst hits
system.switch_cpus0.dtb.inst_misses                 0                       # ITB inst misses
system.switch_cpus0.dtb.read_hits                   0                       # DTB read hits
system.switch_cpus0.dtb.read_misses                 0                       # DTB read misses
system.switch_cpus0.dtb.write_hits                  0                       # DTB write hits
system.switch_cpus0.dtb.write_misses                0                       # DTB write misses
system.switch_cpus0.dtb.flush_tlb                   0                       # Number of times complete TLB was flushed
system.switch_cpus0.dtb.flush_tlb_mva               0                       # Number of times TLB was flushed by MVA
system.switch_cpus0.dtb.flush_tlb_mva_asid            0                       # Number of times TLB was flushed by MVA & ASID
system.switch_cpus0.dtb.flush_tlb_asid              0                       # Number of times TLB was flushed by ASID
system.switch_cpus0.dtb.flush_entries               0                       # Number of entries that have been flushed from TLB
system.switch_cpus0.dtb.align_faults                0                       # Number of TLB faults due to alignment restrictions
system.switch_cpus0.dtb.prefetch_faults             0                       # Number of TLB faults due to prefetch
system.switch_cpus0.dtb.domain_faults               0                       # Number of TLB faults due to domain restrictions
system.switch_cpus0.dtb.perms_faults                0                       # Number of TLB faults due to permissions restrictions
system.switch_cpus0.dtb.read_accesses               0                       # DTB read accesses
system.switch_cpus0.dtb.write_accesses              0                       # DTB write accesses
system.switch_cpus0.dtb.inst_accesses               0                       # ITB inst accesses
system.switch_cpus0.dtb.hits                        0                       # DTB hits
system.switch_cpus0.dtb.misses                      0                       # DTB misses
system.switch_cpus0.dtb.accesses                    0                       # DTB accesses
system.switch_cpus0.itb.inst_hits                   0                       # ITB inst hits
system.switch_cpus0.itb.inst_misses                 0                       # ITB inst misses
system.switch_cpus0.itb.read_hits                   0                       # DTB read hits
system.switch_cpus0.itb.read_misses                 0                       # DTB read misses
system.switch_cpus0.itb.write_hits                  0                       # DTB write hits
system.switch_cpus0.itb.write_misses                0                       # DTB write misses
system.switch_cpus0.itb.flush_tlb                   0                       # Number of times complete TLB was flushed
system.switch_cpus0.itb.flush_tlb_mva               0                       # Number of times TLB was flushed by MVA
system.switch_cpus0.itb.flush_tlb_mva_asid            0                       # Number of times TLB was flushed by MVA & ASID
system.switch_cpus0.itb.flush_tlb_asid              0                       # Number of times TLB was flushed by ASID
system.switch_cpus0.itb.flush_entries               0                       # Number of entries that have been flushed from TLB
system.switch_cpus0.itb.align_faults                0                       # Number of TLB faults due to alignment restrictions
system.switch_cpus0.itb.prefetch_faults             0                       # Number of TLB faults due to prefetch
system.switch_cpus0.itb.domain_faults               0                       # Number of TLB faults due to domain restrictions
system.switch_cpus0.itb.perms_faults                0                       # Number of TLB faults due to permissions restrictions
system.switch_cpus0.itb.read_accesses               0                       # DTB read accesses
system.switch_cpus0.itb.write_accesses              0                       # DTB write accesses
system.switch_cpus0.itb.inst_accesses               0                       # ITB inst accesses
system.switch_cpus0.itb.hits                        0                       # DTB hits
system.switch_cpus0.itb.misses                      0                       # DTB misses
system.switch_cpus0.itb.accesses                    0                       # DTB accesses
system.cpu0.workload.num_syscalls                   0                       # Number of system calls
system.switch_cpus0.numCycles               251879337                       # number of cpu cycles simulated
system.switch_cpus0.numWorkItemsStarted             0                       # number of work items this cpu started
system.switch_cpus0.numWorkItemsCompleted            0                       # number of work items this cpu completed
system.switch_cpus0.BPredUnit.lookups        21937685                       # Number of BP lookups
system.switch_cpus0.BPredUnit.condPredicted     17774548                       # Number of conditional branches predicted
system.switch_cpus0.BPredUnit.condIncorrect      2012208                       # Number of conditional branches incorrect
system.switch_cpus0.BPredUnit.BTBLookups      9019883                       # Number of BTB lookups
system.switch_cpus0.BPredUnit.BTBHits         8284649                       # Number of BTB hits
system.switch_cpus0.BPredUnit.BTBCorrect            0                       # Number of correct BTB predictions (this stat may not work properly.
system.switch_cpus0.BPredUnit.usedRAS         2464131                       # Number of times the RAS was used to get a target.
system.switch_cpus0.BPredUnit.RASInCorrect        91598                       # Number of incorrect RAS predictions.
system.switch_cpus0.fetch.icacheStallCycles    185554102                       # Number of cycles fetch is stalled on an Icache miss
system.switch_cpus0.fetch.Insts             121933519                       # Number of instructions fetch has processed
system.switch_cpus0.fetch.Branches           21937685                       # Number of branches that fetch encountered
system.switch_cpus0.fetch.predictedBranches     10748780                       # Number of branches that fetch has predicted taken
system.switch_cpus0.fetch.Cycles             26708508                       # Number of cycles fetch has run and was not squashing or blocked
system.switch_cpus0.fetch.SquashCycles        6158909                       # Number of cycles fetch has spent squashing
system.switch_cpus0.fetch.BlockedCycles       5048302                       # Number of cycles fetch has spent blocked
system.switch_cpus0.fetch.CacheLines         11611565                       # Number of cache lines fetched
system.switch_cpus0.fetch.IcacheSquashes      2010693                       # Number of outstanding Icache misses that were squashed
system.switch_cpus0.fetch.rateDist::samples    221413794                       # Number of instructions fetched each cycle (Total)
system.switch_cpus0.fetch.rateDist::mean     0.676580                       # Number of instructions fetched each cycle (Total)
system.switch_cpus0.fetch.rateDist::stdev     2.047939                       # Number of instructions fetched each cycle (Total)
system.switch_cpus0.fetch.rateDist::underflows            0      0.00%      0.00% # Number of instructions fetched each cycle (Total)
system.switch_cpus0.fetch.rateDist::0       194705286     87.94%     87.94% # Number of instructions fetched each cycle (Total)
system.switch_cpus0.fetch.rateDist::1         2482857      1.12%     89.06% # Number of instructions fetched each cycle (Total)
system.switch_cpus0.fetch.rateDist::2         1960997      0.89%     89.94% # Number of instructions fetched each cycle (Total)
system.switch_cpus0.fetch.rateDist::3         4592316      2.07%     92.02% # Number of instructions fetched each cycle (Total)
system.switch_cpus0.fetch.rateDist::4          994884      0.45%     92.47% # Number of instructions fetched each cycle (Total)
system.switch_cpus0.fetch.rateDist::5         1553353      0.70%     93.17% # Number of instructions fetched each cycle (Total)
system.switch_cpus0.fetch.rateDist::6         1187473      0.54%     93.71% # Number of instructions fetched each cycle (Total)
system.switch_cpus0.fetch.rateDist::7          741763      0.34%     94.04% # Number of instructions fetched each cycle (Total)
system.switch_cpus0.fetch.rateDist::8        13194865      5.96%    100.00% # Number of instructions fetched each cycle (Total)
system.switch_cpus0.fetch.rateDist::overflows            0      0.00%    100.00% # Number of instructions fetched each cycle (Total)
system.switch_cpus0.fetch.rateDist::min_value            0                       # Number of instructions fetched each cycle (Total)
system.switch_cpus0.fetch.rateDist::max_value            8                       # Number of instructions fetched each cycle (Total)
system.switch_cpus0.fetch.rateDist::total    221413794                       # Number of instructions fetched each cycle (Total)
system.switch_cpus0.fetch.branchRate         0.087096                       # Number of branch fetches per cycle
system.switch_cpus0.fetch.rate               0.484095                       # Number of inst fetches per cycle
system.switch_cpus0.decode.IdleCycles       183451664                       # Number of cycles decode is idle
system.switch_cpus0.decode.BlockedCycles      7211083                       # Number of cycles decode is blocked
system.switch_cpus0.decode.RunCycles         26599947                       # Number of cycles decode is running
system.switch_cpus0.decode.UnblockCycles        89684                       # Number of cycles decode is unblocking
system.switch_cpus0.decode.SquashCycles       4061410                       # Number of cycles decode is squashing
system.switch_cpus0.decode.BranchResolved      3780351                       # Number of times decode resolved a branch
system.switch_cpus0.decode.BranchMispred        42190                       # Number of times decode detected a branch misprediction
system.switch_cpus0.decode.DecodedInsts     149508376                       # Number of instructions handled by decode
system.switch_cpus0.decode.SquashedInsts        76018                       # Number of squashed instructions handled by decode
system.switch_cpus0.rename.SquashCycles       4061410                       # Number of cycles rename is squashing
system.switch_cpus0.rename.IdleCycles       183959641                       # Number of cycles rename is idle
system.switch_cpus0.rename.BlockCycles        2099638                       # Number of cycles rename is blocking
system.switch_cpus0.rename.serializeStallCycles      3613709                       # count of cycles rename stalled for serializing inst
system.switch_cpus0.rename.RunCycles         26149468                       # Number of cycles rename is running
system.switch_cpus0.rename.UnblockCycles      1529922                       # Number of cycles rename is unblocking
system.switch_cpus0.rename.RenamedInsts     149373521                       # Number of instructions processed by rename
system.switch_cpus0.rename.ROBFullEvents        39122                       # Number of times rename has blocked due to ROB full
system.switch_cpus0.rename.IQFullEvents        280206                       # Number of times rename has blocked due to IQ full
system.switch_cpus0.rename.LSQFullEvents       540032                       # Number of times rename has blocked due to LSQ full
system.switch_cpus0.rename.FullRegisterEvents       267268                       # Number of times there has been no free registers
system.switch_cpus0.rename.RenamedOperands    210169684                       # Number of destination operands rename has renamed
system.switch_cpus0.rename.RenameLookups    696998445                       # Number of register rename lookups that rename has made
system.switch_cpus0.rename.int_rename_lookups    696998445                       # Number of integer rename lookups
system.switch_cpus0.rename.CommittedMaps    170695495                       # Number of HB maps that are committed
system.switch_cpus0.rename.UndoneMaps        39474166                       # Number of HB maps that are undone due to squashing
system.switch_cpus0.rename.serializingInsts        35866                       # count of serializing insts renamed
system.switch_cpus0.rename.tempSerializingInsts        19325                       # count of temporary serializing insts renamed
system.switch_cpus0.rename.skidInsts          4775406                       # count of insts added to the skid buffer
system.switch_cpus0.memDep0.insertedLoads     14507406                       # Number of loads inserted to the mem dependence unit.
system.switch_cpus0.memDep0.insertedStores      7206154                       # Number of stores inserted to the mem dependence unit.
system.switch_cpus0.memDep0.conflictingLoads       134205                       # Number of conflicting loads.
system.switch_cpus0.memDep0.conflictingStores      1603036                       # Number of conflicting stores.
system.switch_cpus0.iq.iqInstsAdded         148302450                       # Number of instructions added to the IQ (excludes non-spec)
system.switch_cpus0.iq.iqNonSpecInstsAdded        35847                       # Number of non-speculative instructions added to the IQ
system.switch_cpus0.iq.iqInstsIssued        139363752                       # Number of instructions issued
system.switch_cpus0.iq.iqSquashedInstsIssued       145258                       # Number of squashed instructions issued
system.switch_cpus0.iq.iqSquashedInstsExamined     24665713                       # Number of squashed instructions iterated over during squash; mainly for profiling
system.switch_cpus0.iq.iqSquashedOperandsExamined     51244732                       # Number of squashed operands that are examined and possibly removed from graph
system.switch_cpus0.iq.iqSquashedNonSpecRemoved         2779                       # Number of squashed non-spec instructions that were removed
system.switch_cpus0.iq.issued_per_cycle::samples    221413794                       # Number of insts issued each cycle
system.switch_cpus0.iq.issued_per_cycle::mean     0.629427                       # Number of insts issued each cycle
system.switch_cpus0.iq.issued_per_cycle::stdev     1.300557                       # Number of insts issued each cycle
system.switch_cpus0.iq.issued_per_cycle::underflows            0      0.00%      0.00% # Number of insts issued each cycle
system.switch_cpus0.iq.issued_per_cycle::0    161296877     72.85%     72.85% # Number of insts issued each cycle
system.switch_cpus0.iq.issued_per_cycle::1     25782954     11.64%     84.49% # Number of insts issued each cycle
system.switch_cpus0.iq.issued_per_cycle::2     12506706      5.65%     90.14% # Number of insts issued each cycle
system.switch_cpus0.iq.issued_per_cycle::3      8338406      3.77%     93.91% # Number of insts issued each cycle
system.switch_cpus0.iq.issued_per_cycle::4      7715414      3.48%     97.39% # Number of insts issued each cycle
system.switch_cpus0.iq.issued_per_cycle::5      2588113      1.17%     98.56% # Number of insts issued each cycle
system.switch_cpus0.iq.issued_per_cycle::6      2676727      1.21%     99.77% # Number of insts issued each cycle
system.switch_cpus0.iq.issued_per_cycle::7       379191      0.17%     99.94% # Number of insts issued each cycle
system.switch_cpus0.iq.issued_per_cycle::8       129406      0.06%    100.00% # Number of insts issued each cycle
system.switch_cpus0.iq.issued_per_cycle::overflows            0      0.00%    100.00% # Number of insts issued each cycle
system.switch_cpus0.iq.issued_per_cycle::min_value            0                       # Number of insts issued each cycle
system.switch_cpus0.iq.issued_per_cycle::max_value            8                       # Number of insts issued each cycle
system.switch_cpus0.iq.issued_per_cycle::total    221413794                       # Number of insts issued each cycle
system.switch_cpus0.iq.fu_full::No_OpClass            0      0.00%      0.00% # attempts to use FU when none available
system.switch_cpus0.iq.fu_full::IntAlu         400415     59.62%     59.62% # attempts to use FU when none available
system.switch_cpus0.iq.fu_full::IntMult             0      0.00%     59.62% # attempts to use FU when none available
system.switch_cpus0.iq.fu_full::IntDiv              0      0.00%     59.62% # attempts to use FU when none available
system.switch_cpus0.iq.fu_full::FloatAdd            0      0.00%     59.62% # attempts to use FU when none available
system.switch_cpus0.iq.fu_full::FloatCmp            0      0.00%     59.62% # attempts to use FU when none available
system.switch_cpus0.iq.fu_full::FloatCvt            0      0.00%     59.62% # attempts to use FU when none available
system.switch_cpus0.iq.fu_full::FloatMult            0      0.00%     59.62% # attempts to use FU when none available
system.switch_cpus0.iq.fu_full::FloatDiv            0      0.00%     59.62% # attempts to use FU when none available
system.switch_cpus0.iq.fu_full::FloatSqrt            0      0.00%     59.62% # attempts to use FU when none available
system.switch_cpus0.iq.fu_full::SimdAdd             0      0.00%     59.62% # attempts to use FU when none available
system.switch_cpus0.iq.fu_full::SimdAddAcc            0      0.00%     59.62% # attempts to use FU when none available
system.switch_cpus0.iq.fu_full::SimdAlu             0      0.00%     59.62% # attempts to use FU when none available
system.switch_cpus0.iq.fu_full::SimdCmp             0      0.00%     59.62% # attempts to use FU when none available
system.switch_cpus0.iq.fu_full::SimdCvt             0      0.00%     59.62% # attempts to use FU when none available
system.switch_cpus0.iq.fu_full::SimdMisc            0      0.00%     59.62% # attempts to use FU when none available
system.switch_cpus0.iq.fu_full::SimdMult            0      0.00%     59.62% # attempts to use FU when none available
system.switch_cpus0.iq.fu_full::SimdMultAcc            0      0.00%     59.62% # attempts to use FU when none available
system.switch_cpus0.iq.fu_full::SimdShift            0      0.00%     59.62% # attempts to use FU when none available
system.switch_cpus0.iq.fu_full::SimdShiftAcc            0      0.00%     59.62% # attempts to use FU when none available
system.switch_cpus0.iq.fu_full::SimdSqrt            0      0.00%     59.62% # attempts to use FU when none available
system.switch_cpus0.iq.fu_full::SimdFloatAdd            0      0.00%     59.62% # attempts to use FU when none available
system.switch_cpus0.iq.fu_full::SimdFloatAlu            0      0.00%     59.62% # attempts to use FU when none available
system.switch_cpus0.iq.fu_full::SimdFloatCmp            0      0.00%     59.62% # attempts to use FU when none available
system.switch_cpus0.iq.fu_full::SimdFloatCvt            0      0.00%     59.62% # attempts to use FU when none available
system.switch_cpus0.iq.fu_full::SimdFloatDiv            0      0.00%     59.62% # attempts to use FU when none available
system.switch_cpus0.iq.fu_full::SimdFloatMisc            0      0.00%     59.62% # attempts to use FU when none available
system.switch_cpus0.iq.fu_full::SimdFloatMult            0      0.00%     59.62% # attempts to use FU when none available
system.switch_cpus0.iq.fu_full::SimdFloatMultAcc            0      0.00%     59.62% # attempts to use FU when none available
system.switch_cpus0.iq.fu_full::SimdFloatSqrt            0      0.00%     59.62% # attempts to use FU when none available
system.switch_cpus0.iq.fu_full::MemRead        134341     20.00%     79.62% # attempts to use FU when none available
system.switch_cpus0.iq.fu_full::MemWrite       136902     20.38%    100.00% # attempts to use FU when none available
system.switch_cpus0.iq.fu_full::IprAccess            0      0.00%    100.00% # attempts to use FU when none available
system.switch_cpus0.iq.fu_full::InstPrefetch            0      0.00%    100.00% # attempts to use FU when none available
system.switch_cpus0.iq.FU_type_0::No_OpClass            0      0.00%      0.00% # Type of FU issued
system.switch_cpus0.iq.FU_type_0::IntAlu    117057825     83.99%     83.99% # Type of FU issued
system.switch_cpus0.iq.FU_type_0::IntMult      2114002      1.52%     85.51% # Type of FU issued
system.switch_cpus0.iq.FU_type_0::IntDiv            0      0.00%     85.51% # Type of FU issued
system.switch_cpus0.iq.FU_type_0::FloatAdd            0      0.00%     85.51% # Type of FU issued
system.switch_cpus0.iq.FU_type_0::FloatCmp            0      0.00%     85.51% # Type of FU issued
system.switch_cpus0.iq.FU_type_0::FloatCvt            0      0.00%     85.51% # Type of FU issued
system.switch_cpus0.iq.FU_type_0::FloatMult            0      0.00%     85.51% # Type of FU issued
system.switch_cpus0.iq.FU_type_0::FloatDiv            0      0.00%     85.51% # Type of FU issued
system.switch_cpus0.iq.FU_type_0::FloatSqrt            0      0.00%     85.51% # Type of FU issued
system.switch_cpus0.iq.FU_type_0::SimdAdd            0      0.00%     85.51% # Type of FU issued
system.switch_cpus0.iq.FU_type_0::SimdAddAcc            0      0.00%     85.51% # Type of FU issued
system.switch_cpus0.iq.FU_type_0::SimdAlu            0      0.00%     85.51% # Type of FU issued
system.switch_cpus0.iq.FU_type_0::SimdCmp            0      0.00%     85.51% # Type of FU issued
system.switch_cpus0.iq.FU_type_0::SimdCvt            0      0.00%     85.51% # Type of FU issued
system.switch_cpus0.iq.FU_type_0::SimdMisc            0      0.00%     85.51% # Type of FU issued
system.switch_cpus0.iq.FU_type_0::SimdMult            0      0.00%     85.51% # Type of FU issued
system.switch_cpus0.iq.FU_type_0::SimdMultAcc            0      0.00%     85.51% # Type of FU issued
system.switch_cpus0.iq.FU_type_0::SimdShift            0      0.00%     85.51% # Type of FU issued
system.switch_cpus0.iq.FU_type_0::SimdShiftAcc            0      0.00%     85.51% # Type of FU issued
system.switch_cpus0.iq.FU_type_0::SimdSqrt            0      0.00%     85.51% # Type of FU issued
system.switch_cpus0.iq.FU_type_0::SimdFloatAdd            0      0.00%     85.51% # Type of FU issued
system.switch_cpus0.iq.FU_type_0::SimdFloatAlu            0      0.00%     85.51% # Type of FU issued
system.switch_cpus0.iq.FU_type_0::SimdFloatCmp            0      0.00%     85.51% # Type of FU issued
system.switch_cpus0.iq.FU_type_0::SimdFloatCvt            0      0.00%     85.51% # Type of FU issued
system.switch_cpus0.iq.FU_type_0::SimdFloatDiv            0      0.00%     85.51% # Type of FU issued
system.switch_cpus0.iq.FU_type_0::SimdFloatMisc        16534      0.01%     85.52% # Type of FU issued
system.switch_cpus0.iq.FU_type_0::SimdFloatMult            0      0.00%     85.52% # Type of FU issued
system.switch_cpus0.iq.FU_type_0::SimdFloatMultAcc            0      0.00%     85.52% # Type of FU issued
system.switch_cpus0.iq.FU_type_0::SimdFloatSqrt            0      0.00%     85.52% # Type of FU issued
system.switch_cpus0.iq.FU_type_0::MemRead     13025746      9.35%     94.87% # Type of FU issued
system.switch_cpus0.iq.FU_type_0::MemWrite      7149645      5.13%    100.00% # Type of FU issued
system.switch_cpus0.iq.FU_type_0::IprAccess            0      0.00%    100.00% # Type of FU issued
system.switch_cpus0.iq.FU_type_0::InstPrefetch            0      0.00%    100.00% # Type of FU issued
system.switch_cpus0.iq.FU_type_0::total     139363752                       # Type of FU issued
system.switch_cpus0.iq.rate                  0.553296                       # Inst issue rate
system.switch_cpus0.iq.fu_busy_cnt             671658                       # FU busy when requested
system.switch_cpus0.iq.fu_busy_rate          0.004819                       # FU busy rate (busy events/executed inst)
system.switch_cpus0.iq.int_inst_queue_reads    500958212                       # Number of integer instruction queue reads
system.switch_cpus0.iq.int_inst_queue_writes    173004476                       # Number of integer instruction queue writes
system.switch_cpus0.iq.int_inst_queue_wakeup_accesses    135792938                       # Number of integer instruction queue wakeup accesses
system.switch_cpus0.iq.fp_inst_queue_reads            0                       # Number of floating instruction queue reads
system.switch_cpus0.iq.fp_inst_queue_writes            0                       # Number of floating instruction queue writes
system.switch_cpus0.iq.fp_inst_queue_wakeup_accesses            0                       # Number of floating instruction queue wakeup accesses
system.switch_cpus0.iq.int_alu_accesses     140035410                       # Number of integer alu accesses
system.switch_cpus0.iq.fp_alu_accesses              0                       # Number of floating point alu accesses
system.switch_cpus0.iew.lsq.thread0.forwLoads       352707                       # Number of loads that had data forwarded from stores
system.switch_cpus0.iew.lsq.thread0.invAddrLoads            0                       # Number of loads ignored due to an invalid address
system.switch_cpus0.iew.lsq.thread0.squashedLoads      3273469                       # Number of loads squashed
system.switch_cpus0.iew.lsq.thread0.ignoredResponses         1036                       # Number of memory responses ignored because the instruction is squashed
system.switch_cpus0.iew.lsq.thread0.memOrderViolation          466                       # Number of memory ordering violations
system.switch_cpus0.iew.lsq.thread0.squashedStores       180428                       # Number of stores squashed
system.switch_cpus0.iew.lsq.thread0.invAddrSwpfs            0                       # Number of software prefetches ignored due to an invalid address
system.switch_cpus0.iew.lsq.thread0.blockedLoads            0                       # Number of blocked loads due to partial load-store forwarding
system.switch_cpus0.iew.lsq.thread0.rescheduledLoads            1                       # Number of loads that were rescheduled
system.switch_cpus0.iew.lsq.thread0.cacheBlocked            0                       # Number of times an access to memory failed due to the cache being blocked
system.switch_cpus0.iew.iewIdleCycles               0                       # Number of cycles IEW is idle
system.switch_cpus0.iew.iewSquashCycles       4061410                       # Number of cycles IEW is squashing
system.switch_cpus0.iew.iewBlockCycles        1257499                       # Number of cycles IEW is blocking
system.switch_cpus0.iew.iewUnblockCycles        99488                       # Number of cycles IEW is unblocking
system.switch_cpus0.iew.iewDispatchedInsts    148338297                       # Number of instructions dispatched to IQ
system.switch_cpus0.iew.iewDispSquashedInsts        10553                       # Number of squashed instructions skipped by dispatch
system.switch_cpus0.iew.iewDispLoadInsts     14507406                       # Number of dispatched load instructions
system.switch_cpus0.iew.iewDispStoreInsts      7206154                       # Number of dispatched store instructions
system.switch_cpus0.iew.iewDispNonSpecInsts        19313                       # Number of dispatched non-speculative instructions
system.switch_cpus0.iew.iewIQFullEvents         83424                       # Number of times the IQ has become full, causing a stall
system.switch_cpus0.iew.iewLSQFullEvents            2                       # Number of times the LSQ has become full, causing a stall
system.switch_cpus0.iew.memOrderViolationEvents          466                       # Number of memory order violations
system.switch_cpus0.iew.predictedTakenIncorrect      1098688                       # Number of branches that were predicted taken incorrectly
system.switch_cpus0.iew.predictedNotTakenIncorrect      1136042                       # Number of branches that were predicted not taken incorrectly
system.switch_cpus0.iew.branchMispredicts      2234730                       # Number of branch mispredicts detected at execute
system.switch_cpus0.iew.iewExecutedInsts    136827241                       # Number of executed instructions
system.switch_cpus0.iew.iewExecLoadInsts     12577974                       # Number of load instructions executed
system.switch_cpus0.iew.iewExecSquashedInsts      2536509                       # Number of squashed instructions skipped in execute
system.switch_cpus0.iew.exec_swp                    0                       # number of swp insts executed
system.switch_cpus0.iew.exec_nop                    0                       # number of nop insts executed
system.switch_cpus0.iew.exec_refs            19726230                       # number of memory reference insts executed
system.switch_cpus0.iew.exec_branches        19403835                       # Number of branches executed
system.switch_cpus0.iew.exec_stores           7148256                       # Number of stores executed
system.switch_cpus0.iew.exec_rate            0.543225                       # Inst execution rate
system.switch_cpus0.iew.wb_sent             135793415                       # cumulative count of insts sent to commit
system.switch_cpus0.iew.wb_count            135792938                       # cumulative count of insts written-back
system.switch_cpus0.iew.wb_producers         80429928                       # num instructions producing a value
system.switch_cpus0.iew.wb_consumers        221937357                       # num instructions consuming a value
system.switch_cpus0.iew.wb_penalized                0                       # number of instrctions required to write to 'other' IQ
system.switch_cpus0.iew.wb_rate              0.539119                       # insts written-back per cycle
system.switch_cpus0.iew.wb_fanout            0.362399                       # average fanout of values written-back
system.switch_cpus0.iew.wb_penalized_rate            0                       # fraction of instructions written-back that wrote to 'other' IQ
system.switch_cpus0.commit.commitCommittedInsts    100000004                       # The number of committed instructions
system.switch_cpus0.commit.commitCommittedOps    122809383                       # The number of committed instructions
system.switch_cpus0.commit.commitSquashedInsts     25530771                       # The number of squashed insts skipped by commit
system.switch_cpus0.commit.commitNonSpecStalls        33068                       # The number of times commit has been forced to stall to communicate backwards
system.switch_cpus0.commit.branchMispredicts      2014240                       # The number of times a branch was mispredicted
system.switch_cpus0.commit.committed_per_cycle::samples    217352384                       # Number of insts commited each cycle
system.switch_cpus0.commit.committed_per_cycle::mean     0.565024                       # Number of insts commited each cycle
system.switch_cpus0.commit.committed_per_cycle::stdev     1.369566                       # Number of insts commited each cycle
system.switch_cpus0.commit.committed_per_cycle::underflows            0      0.00%      0.00% # Number of insts commited each cycle
system.switch_cpus0.commit.committed_per_cycle::0    165777429     76.27%     76.27% # Number of insts commited each cycle
system.switch_cpus0.commit.committed_per_cycle::1     24273919     11.17%     87.44% # Number of insts commited each cycle
system.switch_cpus0.commit.committed_per_cycle::2     10601963      4.88%     92.32% # Number of insts commited each cycle
system.switch_cpus0.commit.committed_per_cycle::3      6017716      2.77%     95.09% # Number of insts commited each cycle
system.switch_cpus0.commit.committed_per_cycle::4      4357661      2.00%     97.09% # Number of insts commited each cycle
system.switch_cpus0.commit.committed_per_cycle::5      1713493      0.79%     97.88% # Number of insts commited each cycle
system.switch_cpus0.commit.committed_per_cycle::6      1323158      0.61%     98.49% # Number of insts commited each cycle
system.switch_cpus0.commit.committed_per_cycle::7       955027      0.44%     98.93% # Number of insts commited each cycle
system.switch_cpus0.commit.committed_per_cycle::8      2332018      1.07%    100.00% # Number of insts commited each cycle
system.switch_cpus0.commit.committed_per_cycle::overflows            0      0.00%    100.00% # Number of insts commited each cycle
system.switch_cpus0.commit.committed_per_cycle::min_value            0                       # Number of insts commited each cycle
system.switch_cpus0.commit.committed_per_cycle::max_value            8                       # Number of insts commited each cycle
system.switch_cpus0.commit.committed_per_cycle::total    217352384                       # Number of insts commited each cycle
system.switch_cpus0.commit.committedInsts    100000004                       # Number of instructions committed
system.switch_cpus0.commit.committedOps     122809383                       # Number of ops (including micro ops) committed
system.switch_cpus0.commit.swp_count                0                       # Number of s/w prefetches committed
system.switch_cpus0.commit.refs              18259663                       # Number of memory references committed
system.switch_cpus0.commit.loads             11233937                       # Number of loads committed
system.switch_cpus0.commit.membars              16534                       # Number of memory barriers committed
system.switch_cpus0.commit.branches          17645452                       # Number of branches committed
system.switch_cpus0.commit.fp_insts                 0                       # Number of committed floating point instructions.
system.switch_cpus0.commit.int_insts        110655559                       # Number of committed integer instructions.
system.switch_cpus0.commit.function_calls      2500186                       # Number of function calls committed.
system.switch_cpus0.commit.bw_lim_events      2332018                       # number cycles where commit BW limit reached
system.switch_cpus0.commit.bw_limited               0                       # number of insts not committed due to BW limits
system.switch_cpus0.rob.rob_reads           363360520                       # The number of ROB reads
system.switch_cpus0.rob.rob_writes          300741811                       # The number of ROB writes
system.switch_cpus0.timesIdled                3016854                       # Number of times that the entire CPU went into an idle state and unscheduled itself
system.switch_cpus0.idleCycles               30465543                       # Total number of cycles that the CPU has spent unscheduled due to idling
system.switch_cpus0.committedInsts          100000004                       # Number of Instructions Simulated
system.switch_cpus0.committedOps            122809383                       # Number of Ops (including micro ops) Simulated
system.switch_cpus0.committedInsts_total    100000004                       # Number of Instructions Simulated
system.switch_cpus0.cpi                      2.518793                       # CPI: Cycles Per Instruction
system.switch_cpus0.cpi_total                2.518793                       # CPI: Total CPI of All Threads
system.switch_cpus0.ipc                      0.397016                       # IPC: Instructions Per Cycle
system.switch_cpus0.ipc_total                0.397016                       # IPC: Total IPC of All Threads
system.switch_cpus0.int_regfile_reads       616338175                       # number of integer regfile reads
system.switch_cpus0.int_regfile_writes      189143350                       # number of integer regfile writes
system.switch_cpus0.misc_regfile_reads      138100951                       # number of misc regfile reads
system.switch_cpus0.misc_regfile_writes         33068                       # number of misc regfile writes
system.switch_cpus1.dtb.inst_hits                   0                       # ITB inst hits
system.switch_cpus1.dtb.inst_misses                 0                       # ITB inst misses
system.switch_cpus1.dtb.read_hits                   0                       # DTB read hits
system.switch_cpus1.dtb.read_misses                 0                       # DTB read misses
system.switch_cpus1.dtb.write_hits                  0                       # DTB write hits
system.switch_cpus1.dtb.write_misses                0                       # DTB write misses
system.switch_cpus1.dtb.flush_tlb                   0                       # Number of times complete TLB was flushed
system.switch_cpus1.dtb.flush_tlb_mva               0                       # Number of times TLB was flushed by MVA
system.switch_cpus1.dtb.flush_tlb_mva_asid            0                       # Number of times TLB was flushed by MVA & ASID
system.switch_cpus1.dtb.flush_tlb_asid              0                       # Number of times TLB was flushed by ASID
system.switch_cpus1.dtb.flush_entries               0                       # Number of entries that have been flushed from TLB
system.switch_cpus1.dtb.align_faults                0                       # Number of TLB faults due to alignment restrictions
system.switch_cpus1.dtb.prefetch_faults             0                       # Number of TLB faults due to prefetch
system.switch_cpus1.dtb.domain_faults               0                       # Number of TLB faults due to domain restrictions
system.switch_cpus1.dtb.perms_faults                0                       # Number of TLB faults due to permissions restrictions
system.switch_cpus1.dtb.read_accesses               0                       # DTB read accesses
system.switch_cpus1.dtb.write_accesses              0                       # DTB write accesses
system.switch_cpus1.dtb.inst_accesses               0                       # ITB inst accesses
system.switch_cpus1.dtb.hits                        0                       # DTB hits
system.switch_cpus1.dtb.misses                      0                       # DTB misses
system.switch_cpus1.dtb.accesses                    0                       # DTB accesses
system.switch_cpus1.itb.inst_hits                   0                       # ITB inst hits
system.switch_cpus1.itb.inst_misses                 0                       # ITB inst misses
system.switch_cpus1.itb.read_hits                   0                       # DTB read hits
system.switch_cpus1.itb.read_misses                 0                       # DTB read misses
system.switch_cpus1.itb.write_hits                  0                       # DTB write hits
system.switch_cpus1.itb.write_misses                0                       # DTB write misses
system.switch_cpus1.itb.flush_tlb                   0                       # Number of times complete TLB was flushed
system.switch_cpus1.itb.flush_tlb_mva               0                       # Number of times TLB was flushed by MVA
system.switch_cpus1.itb.flush_tlb_mva_asid            0                       # Number of times TLB was flushed by MVA & ASID
system.switch_cpus1.itb.flush_tlb_asid              0                       # Number of times TLB was flushed by ASID
system.switch_cpus1.itb.flush_entries               0                       # Number of entries that have been flushed from TLB
system.switch_cpus1.itb.align_faults                0                       # Number of TLB faults due to alignment restrictions
system.switch_cpus1.itb.prefetch_faults             0                       # Number of TLB faults due to prefetch
system.switch_cpus1.itb.domain_faults               0                       # Number of TLB faults due to domain restrictions
system.switch_cpus1.itb.perms_faults                0                       # Number of TLB faults due to permissions restrictions
system.switch_cpus1.itb.read_accesses               0                       # DTB read accesses
system.switch_cpus1.itb.write_accesses              0                       # DTB write accesses
system.switch_cpus1.itb.inst_accesses               0                       # ITB inst accesses
system.switch_cpus1.itb.hits                        0                       # DTB hits
system.switch_cpus1.itb.misses                      0                       # DTB misses
system.switch_cpus1.itb.accesses                    0                       # DTB accesses
system.cpu1.workload.num_syscalls                   0                       # Number of system calls
system.switch_cpus1.numCycles               251879337                       # number of cpu cycles simulated
system.switch_cpus1.numWorkItemsStarted             0                       # number of work items this cpu started
system.switch_cpus1.numWorkItemsCompleted            0                       # number of work items this cpu completed
system.switch_cpus1.BPredUnit.lookups        19891489                       # Number of BP lookups
system.switch_cpus1.BPredUnit.condPredicted     16264258                       # Number of conditional branches predicted
system.switch_cpus1.BPredUnit.condIncorrect      1937692                       # Number of conditional branches incorrect
system.switch_cpus1.BPredUnit.BTBLookups      8118420                       # Number of BTB lookups
system.switch_cpus1.BPredUnit.BTBHits         7801364                       # Number of BTB hits
system.switch_cpus1.BPredUnit.BTBCorrect            0                       # Number of correct BTB predictions (this stat may not work properly.
system.switch_cpus1.BPredUnit.usedRAS         2035219                       # Number of times the RAS was used to get a target.
system.switch_cpus1.BPredUnit.RASInCorrect        87197                       # Number of incorrect RAS predictions.
system.switch_cpus1.fetch.icacheStallCycles    191457112                       # Number of cycles fetch is stalled on an Icache miss
system.switch_cpus1.fetch.Insts             111762696                       # Number of instructions fetch has processed
system.switch_cpus1.fetch.Branches           19891489                       # Number of branches that fetch encountered
system.switch_cpus1.fetch.predictedBranches      9836583                       # Number of branches that fetch has predicted taken
system.switch_cpus1.fetch.Cycles             23276544                       # Number of cycles fetch has run and was not squashing or blocked
system.switch_cpus1.fetch.SquashCycles        5386673                       # Number of cycles fetch has spent squashing
system.switch_cpus1.fetch.BlockedCycles       7194598                       # Number of cycles fetch has spent blocked
system.switch_cpus1.fetch.CacheLines         11731073                       # Number of cache lines fetched
system.switch_cpus1.fetch.IcacheSquashes      1939399                       # Number of outstanding Icache misses that were squashed
system.switch_cpus1.fetch.rateDist::samples    225344992                       # Number of instructions fetched each cycle (Total)
system.switch_cpus1.fetch.rateDist::mean     0.608187                       # Number of instructions fetched each cycle (Total)
system.switch_cpus1.fetch.rateDist::stdev     1.949424                       # Number of instructions fetched each cycle (Total)
system.switch_cpus1.fetch.rateDist::underflows            0      0.00%      0.00% # Number of instructions fetched each cycle (Total)
system.switch_cpus1.fetch.rateDist::0       202068448     89.67%     89.67% # Number of instructions fetched each cycle (Total)
system.switch_cpus1.fetch.rateDist::1         1115640      0.50%     90.17% # Number of instructions fetched each cycle (Total)
system.switch_cpus1.fetch.rateDist::2         1701118      0.75%     90.92% # Number of instructions fetched each cycle (Total)
system.switch_cpus1.fetch.rateDist::3         2328343      1.03%     91.95% # Number of instructions fetched each cycle (Total)
system.switch_cpus1.fetch.rateDist::4         2393429      1.06%     93.02% # Number of instructions fetched each cycle (Total)
system.switch_cpus1.fetch.rateDist::5         1998484      0.89%     93.90% # Number of instructions fetched each cycle (Total)
system.switch_cpus1.fetch.rateDist::6         1130528      0.50%     94.40% # Number of instructions fetched each cycle (Total)
system.switch_cpus1.fetch.rateDist::7         1672382      0.74%     95.15% # Number of instructions fetched each cycle (Total)
system.switch_cpus1.fetch.rateDist::8        10936620      4.85%    100.00% # Number of instructions fetched each cycle (Total)
system.switch_cpus1.fetch.rateDist::overflows            0      0.00%    100.00% # Number of instructions fetched each cycle (Total)
system.switch_cpus1.fetch.rateDist::min_value            0                       # Number of instructions fetched each cycle (Total)
system.switch_cpus1.fetch.rateDist::max_value            8                       # Number of instructions fetched each cycle (Total)
system.switch_cpus1.fetch.rateDist::total    225344992                       # Number of instructions fetched each cycle (Total)
system.switch_cpus1.fetch.branchRate         0.078972                       # Number of branch fetches per cycle
system.switch_cpus1.fetch.rate               0.443715                       # Number of inst fetches per cycle
system.switch_cpus1.decode.IdleCycles       189247392                       # Number of cycles decode is idle
system.switch_cpus1.decode.BlockedCycles      9422909                       # Number of cycles decode is blocked
system.switch_cpus1.decode.RunCycles         23212125                       # Number of cycles decode is running
system.switch_cpus1.decode.UnblockCycles        46066                       # Number of cycles decode is unblocking
system.switch_cpus1.decode.SquashCycles       3416498                       # Number of cycles decode is squashing
system.switch_cpus1.decode.BranchResolved      3281871                       # Number of times decode resolved a branch
system.switch_cpus1.decode.BranchMispred          241                       # Number of times decode detected a branch misprediction
system.switch_cpus1.decode.DecodedInsts     136935036                       # Number of instructions handled by decode
system.switch_cpus1.decode.SquashedInsts         1321                       # Number of squashed instructions handled by decode
system.switch_cpus1.rename.SquashCycles       3416498                       # Number of cycles rename is squashing
system.switch_cpus1.rename.IdleCycles       189787540                       # Number of cycles rename is idle
system.switch_cpus1.rename.BlockCycles        1529629                       # Number of cycles rename is blocking
system.switch_cpus1.rename.serializeStallCycles      6529152                       # count of cycles rename stalled for serializing inst
system.switch_cpus1.rename.RunCycles         22728568                       # Number of cycles rename is running
system.switch_cpus1.rename.UnblockCycles      1353603                       # Number of cycles rename is unblocking
system.switch_cpus1.rename.RenamedInsts     136850717                       # Number of instructions processed by rename
system.switch_cpus1.rename.ROBFullEvents         1673                       # Number of times rename has blocked due to ROB full
system.switch_cpus1.rename.IQFullEvents        312798                       # Number of times rename has blocked due to IQ full
system.switch_cpus1.rename.LSQFullEvents       536189                       # Number of times rename has blocked due to LSQ full
system.switch_cpus1.rename.FullRegisterEvents         1490                       # Number of times there has been no free registers
system.switch_cpus1.rename.RenamedOperands    190164739                       # Number of destination operands rename has renamed
system.switch_cpus1.rename.RenameLookups    636909486                       # Number of register rename lookups that rename has made
system.switch_cpus1.rename.int_rename_lookups    636909486                       # Number of integer rename lookups
system.switch_cpus1.rename.CommittedMaps    164228753                       # Number of HB maps that are committed
system.switch_cpus1.rename.UndoneMaps        25935986                       # Number of HB maps that are undone due to squashing
system.switch_cpus1.rename.serializingInsts        37554                       # count of serializing insts renamed
system.switch_cpus1.rename.tempSerializingInsts        21522                       # count of temporary serializing insts renamed
system.switch_cpus1.rename.skidInsts          3928390                       # count of insts added to the skid buffer
system.switch_cpus1.memDep0.insertedLoads     12998894                       # Number of loads inserted to the mem dependence unit.
system.switch_cpus1.memDep0.insertedStores      7122036                       # Number of stores inserted to the mem dependence unit.
system.switch_cpus1.memDep0.conflictingLoads       126229                       # Number of conflicting loads.
system.switch_cpus1.memDep0.conflictingStores      1607127                       # Number of conflicting stores.
system.switch_cpus1.iq.iqInstsAdded         136660802                       # Number of instructions added to the IQ (excludes non-spec)
system.switch_cpus1.iq.iqNonSpecInstsAdded        37538                       # Number of non-speculative instructions added to the IQ
system.switch_cpus1.iq.iqInstsIssued        129548780                       # Number of instructions issued
system.switch_cpus1.iq.iqSquashedInstsIssued        25805                       # Number of squashed instructions issued
system.switch_cpus1.iq.iqSquashedInstsExamined     15655233                       # Number of squashed instructions iterated over during squash; mainly for profiling
system.switch_cpus1.iq.iqSquashedOperandsExamined     37270075                       # Number of squashed operands that are examined and possibly removed from graph
system.switch_cpus1.iq.iqSquashedNonSpecRemoved         5474                       # Number of squashed non-spec instructions that were removed
system.switch_cpus1.iq.issued_per_cycle::samples    225344992                       # Number of insts issued each cycle
system.switch_cpus1.iq.issued_per_cycle::mean     0.574891                       # Number of insts issued each cycle
system.switch_cpus1.iq.issued_per_cycle::stdev     1.264577                       # Number of insts issued each cycle
system.switch_cpus1.iq.issued_per_cycle::underflows            0      0.00%      0.00% # Number of insts issued each cycle
system.switch_cpus1.iq.issued_per_cycle::0    170519078     75.67%     75.67% # Number of insts issued each cycle
system.switch_cpus1.iq.issued_per_cycle::1     22385238      9.93%     85.60% # Number of insts issued each cycle
system.switch_cpus1.iq.issued_per_cycle::2     11568016      5.13%     90.74% # Number of insts issued each cycle
system.switch_cpus1.iq.issued_per_cycle::3      8690525      3.86%     94.59% # Number of insts issued each cycle
system.switch_cpus1.iq.issued_per_cycle::4      6755397      3.00%     97.59% # Number of insts issued each cycle
system.switch_cpus1.iq.issued_per_cycle::5      2718443      1.21%     98.80% # Number of insts issued each cycle
system.switch_cpus1.iq.issued_per_cycle::6      1725557      0.77%     99.56% # Number of insts issued each cycle
system.switch_cpus1.iq.issued_per_cycle::7       873114      0.39%     99.95% # Number of insts issued each cycle
system.switch_cpus1.iq.issued_per_cycle::8       109624      0.05%    100.00% # Number of insts issued each cycle
system.switch_cpus1.iq.issued_per_cycle::overflows            0      0.00%    100.00% # Number of insts issued each cycle
system.switch_cpus1.iq.issued_per_cycle::min_value            0                       # Number of insts issued each cycle
system.switch_cpus1.iq.issued_per_cycle::max_value            8                       # Number of insts issued each cycle
system.switch_cpus1.iq.issued_per_cycle::total    225344992                       # Number of insts issued each cycle
system.switch_cpus1.iq.fu_full::No_OpClass            0      0.00%      0.00% # attempts to use FU when none available
system.switch_cpus1.iq.fu_full::IntAlu          23187     10.05%     10.05% # attempts to use FU when none available
system.switch_cpus1.iq.fu_full::IntMult             0      0.00%     10.05% # attempts to use FU when none available
system.switch_cpus1.iq.fu_full::IntDiv              0      0.00%     10.05% # attempts to use FU when none available
system.switch_cpus1.iq.fu_full::FloatAdd            0      0.00%     10.05% # attempts to use FU when none available
system.switch_cpus1.iq.fu_full::FloatCmp            0      0.00%     10.05% # attempts to use FU when none available
system.switch_cpus1.iq.fu_full::FloatCvt            0      0.00%     10.05% # attempts to use FU when none available
system.switch_cpus1.iq.fu_full::FloatMult            0      0.00%     10.05% # attempts to use FU when none available
system.switch_cpus1.iq.fu_full::FloatDiv            0      0.00%     10.05% # attempts to use FU when none available
system.switch_cpus1.iq.fu_full::FloatSqrt            0      0.00%     10.05% # attempts to use FU when none available
system.switch_cpus1.iq.fu_full::SimdAdd             0      0.00%     10.05% # attempts to use FU when none available
system.switch_cpus1.iq.fu_full::SimdAddAcc            0      0.00%     10.05% # attempts to use FU when none available
system.switch_cpus1.iq.fu_full::SimdAlu             0      0.00%     10.05% # attempts to use FU when none available
system.switch_cpus1.iq.fu_full::SimdCmp             0      0.00%     10.05% # attempts to use FU when none available
system.switch_cpus1.iq.fu_full::SimdCvt             0      0.00%     10.05% # attempts to use FU when none available
system.switch_cpus1.iq.fu_full::SimdMisc            0      0.00%     10.05% # attempts to use FU when none available
system.switch_cpus1.iq.fu_full::SimdMult            0      0.00%     10.05% # attempts to use FU when none available
system.switch_cpus1.iq.fu_full::SimdMultAcc            0      0.00%     10.05% # attempts to use FU when none available
system.switch_cpus1.iq.fu_full::SimdShift            0      0.00%     10.05% # attempts to use FU when none available
system.switch_cpus1.iq.fu_full::SimdShiftAcc            0      0.00%     10.05% # attempts to use FU when none available
system.switch_cpus1.iq.fu_full::SimdSqrt            0      0.00%     10.05% # attempts to use FU when none available
system.switch_cpus1.iq.fu_full::SimdFloatAdd            0      0.00%     10.05% # attempts to use FU when none available
system.switch_cpus1.iq.fu_full::SimdFloatAlu            0      0.00%     10.05% # attempts to use FU when none available
system.switch_cpus1.iq.fu_full::SimdFloatCmp            0      0.00%     10.05% # attempts to use FU when none available
system.switch_cpus1.iq.fu_full::SimdFloatCvt            0      0.00%     10.05% # attempts to use FU when none available
system.switch_cpus1.iq.fu_full::SimdFloatDiv            0      0.00%     10.05% # attempts to use FU when none available
system.switch_cpus1.iq.fu_full::SimdFloatMisc            0      0.00%     10.05% # attempts to use FU when none available
system.switch_cpus1.iq.fu_full::SimdFloatMult            0      0.00%     10.05% # attempts to use FU when none available
system.switch_cpus1.iq.fu_full::SimdFloatMultAcc            0      0.00%     10.05% # attempts to use FU when none available
system.switch_cpus1.iq.fu_full::SimdFloatSqrt            0      0.00%     10.05% # attempts to use FU when none available
system.switch_cpus1.iq.fu_full::MemRead         86198     37.34%     47.39% # attempts to use FU when none available
system.switch_cpus1.iq.fu_full::MemWrite       121431     52.61%    100.00% # attempts to use FU when none available
system.switch_cpus1.iq.fu_full::IprAccess            0      0.00%    100.00% # attempts to use FU when none available
system.switch_cpus1.iq.fu_full::InstPrefetch            0      0.00%    100.00% # attempts to use FU when none available
system.switch_cpus1.iq.FU_type_0::No_OpClass            0      0.00%      0.00% # Type of FU issued
system.switch_cpus1.iq.FU_type_0::IntAlu    108538810     83.78%     83.78% # Type of FU issued
system.switch_cpus1.iq.FU_type_0::IntMult      2009919      1.55%     85.33% # Type of FU issued
system.switch_cpus1.iq.FU_type_0::IntDiv            0      0.00%     85.33% # Type of FU issued
system.switch_cpus1.iq.FU_type_0::FloatAdd            0      0.00%     85.33% # Type of FU issued
system.switch_cpus1.iq.FU_type_0::FloatCmp            0      0.00%     85.33% # Type of FU issued
system.switch_cpus1.iq.FU_type_0::FloatCvt            0      0.00%     85.33% # Type of FU issued
system.switch_cpus1.iq.FU_type_0::FloatMult            0      0.00%     85.33% # Type of FU issued
system.switch_cpus1.iq.FU_type_0::FloatDiv            0      0.00%     85.33% # Type of FU issued
system.switch_cpus1.iq.FU_type_0::FloatSqrt            0      0.00%     85.33% # Type of FU issued
system.switch_cpus1.iq.FU_type_0::SimdAdd            0      0.00%     85.33% # Type of FU issued
system.switch_cpus1.iq.FU_type_0::SimdAddAcc            0      0.00%     85.33% # Type of FU issued
system.switch_cpus1.iq.FU_type_0::SimdAlu            0      0.00%     85.33% # Type of FU issued
system.switch_cpus1.iq.FU_type_0::SimdCmp            0      0.00%     85.33% # Type of FU issued
system.switch_cpus1.iq.FU_type_0::SimdCvt            0      0.00%     85.33% # Type of FU issued
system.switch_cpus1.iq.FU_type_0::SimdMisc            0      0.00%     85.33% # Type of FU issued
system.switch_cpus1.iq.FU_type_0::SimdMult            0      0.00%     85.33% # Type of FU issued
system.switch_cpus1.iq.FU_type_0::SimdMultAcc            0      0.00%     85.33% # Type of FU issued
system.switch_cpus1.iq.FU_type_0::SimdShift            0      0.00%     85.33% # Type of FU issued
system.switch_cpus1.iq.FU_type_0::SimdShiftAcc            0      0.00%     85.33% # Type of FU issued
system.switch_cpus1.iq.FU_type_0::SimdSqrt            0      0.00%     85.33% # Type of FU issued
system.switch_cpus1.iq.FU_type_0::SimdFloatAdd            0      0.00%     85.33% # Type of FU issued
system.switch_cpus1.iq.FU_type_0::SimdFloatAlu            0      0.00%     85.33% # Type of FU issued
system.switch_cpus1.iq.FU_type_0::SimdFloatCmp            0      0.00%     85.33% # Type of FU issued
system.switch_cpus1.iq.FU_type_0::SimdFloatCvt            0      0.00%     85.33% # Type of FU issued
system.switch_cpus1.iq.FU_type_0::SimdFloatDiv            0      0.00%     85.33% # Type of FU issued
system.switch_cpus1.iq.FU_type_0::SimdFloatMisc        16032      0.01%     85.35% # Type of FU issued
system.switch_cpus1.iq.FU_type_0::SimdFloatMult            0      0.00%     85.35% # Type of FU issued
system.switch_cpus1.iq.FU_type_0::SimdFloatMultAcc            0      0.00%     85.35% # Type of FU issued
system.switch_cpus1.iq.FU_type_0::SimdFloatSqrt            0      0.00%     85.35% # Type of FU issued
system.switch_cpus1.iq.FU_type_0::MemRead     11916501      9.20%     94.54% # Type of FU issued
system.switch_cpus1.iq.FU_type_0::MemWrite      7067518      5.46%    100.00% # Type of FU issued
system.switch_cpus1.iq.FU_type_0::IprAccess            0      0.00%    100.00% # Type of FU issued
system.switch_cpus1.iq.FU_type_0::InstPrefetch            0      0.00%    100.00% # Type of FU issued
system.switch_cpus1.iq.FU_type_0::total     129548780                       # Type of FU issued
system.switch_cpus1.iq.rate                  0.514329                       # Inst issue rate
system.switch_cpus1.iq.fu_busy_cnt             230816                       # FU busy when requested
system.switch_cpus1.iq.fu_busy_rate          0.001782                       # FU busy rate (busy events/executed inst)
system.switch_cpus1.iq.int_inst_queue_reads    484699173                       # Number of integer instruction queue reads
system.switch_cpus1.iq.int_inst_queue_writes    152353905                       # Number of integer instruction queue writes
system.switch_cpus1.iq.int_inst_queue_wakeup_accesses    127602938                       # Number of integer instruction queue wakeup accesses
system.switch_cpus1.iq.fp_inst_queue_reads            0                       # Number of floating instruction queue reads
system.switch_cpus1.iq.fp_inst_queue_writes            0                       # Number of floating instruction queue writes
system.switch_cpus1.iq.fp_inst_queue_wakeup_accesses            0                       # Number of floating instruction queue wakeup accesses
system.switch_cpus1.iq.int_alu_accesses     129779596                       # Number of integer alu accesses
system.switch_cpus1.iq.fp_alu_accesses              0                       # Number of floating point alu accesses
system.switch_cpus1.iew.lsq.thread0.forwLoads       301707                       # Number of loads that had data forwarded from stores
system.switch_cpus1.iew.lsq.thread0.invAddrLoads            0                       # Number of loads ignored due to an invalid address
system.switch_cpus1.iew.lsq.thread0.squashedLoads      2161336                       # Number of loads squashed
system.switch_cpus1.iew.lsq.thread0.ignoredResponses           20                       # Number of memory responses ignored because the instruction is squashed
system.switch_cpus1.iew.lsq.thread0.memOrderViolation          332                       # Number of memory ordering violations
system.switch_cpus1.iew.lsq.thread0.squashedStores       175519                       # Number of stores squashed
system.switch_cpus1.iew.lsq.thread0.invAddrSwpfs            0                       # Number of software prefetches ignored due to an invalid address
system.switch_cpus1.iew.lsq.thread0.blockedLoads            0                       # Number of blocked loads due to partial load-store forwarding
system.switch_cpus1.iew.lsq.thread0.rescheduledLoads            0                       # Number of loads that were rescheduled
system.switch_cpus1.iew.lsq.thread0.cacheBlocked          132                       # Number of times an access to memory failed due to the cache being blocked
system.switch_cpus1.iew.iewIdleCycles               0                       # Number of cycles IEW is idle
system.switch_cpus1.iew.iewSquashCycles       3416498                       # Number of cycles IEW is squashing
system.switch_cpus1.iew.iewBlockCycles        1245620                       # Number of cycles IEW is blocking
system.switch_cpus1.iew.iewUnblockCycles       128694                       # Number of cycles IEW is unblocking
system.switch_cpus1.iew.iewDispatchedInsts    136698340                       # Number of instructions dispatched to IQ
system.switch_cpus1.iew.iewDispSquashedInsts        62587                       # Number of squashed instructions skipped by dispatch
system.switch_cpus1.iew.iewDispLoadInsts     12998894                       # Number of dispatched load instructions
system.switch_cpus1.iew.iewDispStoreInsts      7122036                       # Number of dispatched store instructions
system.switch_cpus1.iew.iewDispNonSpecInsts        21506                       # Number of dispatched non-speculative instructions
system.switch_cpus1.iew.iewIQFullEvents         91798                       # Number of times the IQ has become full, causing a stall
system.switch_cpus1.iew.iewLSQFullEvents            1                       # Number of times the LSQ has become full, causing a stall
system.switch_cpus1.iew.memOrderViolationEvents          332                       # Number of memory order violations
system.switch_cpus1.iew.predictedTakenIncorrect      1124851                       # Number of branches that were predicted taken incorrectly
system.switch_cpus1.iew.predictedNotTakenIncorrect      1106256                       # Number of branches that were predicted not taken incorrectly
system.switch_cpus1.iew.branchMispredicts      2231107                       # Number of branch mispredicts detected at execute
system.switch_cpus1.iew.iewExecutedInsts    127786130                       # Number of executed instructions
system.switch_cpus1.iew.iewExecLoadInsts     11237359                       # Number of load instructions executed
system.switch_cpus1.iew.iewExecSquashedInsts      1762650                       # Number of squashed instructions skipped in execute
system.switch_cpus1.iew.exec_swp                    0                       # number of swp insts executed
system.switch_cpus1.iew.exec_nop                    0                       # number of nop insts executed
system.switch_cpus1.iew.exec_refs            18303195                       # number of memory reference insts executed
system.switch_cpus1.iew.exec_branches        18061527                       # Number of branches executed
system.switch_cpus1.iew.exec_stores           7065836                       # Number of stores executed
system.switch_cpus1.iew.exec_rate            0.507331                       # Inst execution rate
system.switch_cpus1.iew.wb_sent             127603126                       # cumulative count of insts sent to commit
system.switch_cpus1.iew.wb_count            127602938                       # cumulative count of insts written-back
system.switch_cpus1.iew.wb_producers         73459910                       # num instructions producing a value
system.switch_cpus1.iew.wb_consumers        196798376                       # num instructions consuming a value
system.switch_cpus1.iew.wb_penalized                0                       # number of instrctions required to write to 'other' IQ
system.switch_cpus1.iew.wb_rate              0.506603                       # insts written-back per cycle
system.switch_cpus1.iew.wb_fanout            0.373275                       # average fanout of values written-back
system.switch_cpus1.iew.wb_penalized_rate            0                       # fraction of instructions written-back that wrote to 'other' IQ
system.switch_cpus1.commit.commitCommittedInsts     96181210                       # The number of committed instructions
system.switch_cpus1.commit.commitCommittedOps    118210717                       # The number of committed instructions
system.switch_cpus1.commit.commitSquashedInsts     18490202                       # The number of squashed insts skipped by commit
system.switch_cpus1.commit.commitNonSpecStalls        32064                       # The number of times commit has been forced to stall to communicate backwards
system.switch_cpus1.commit.branchMispredicts      1969281                       # The number of times a branch was mispredicted
system.switch_cpus1.commit.committed_per_cycle::samples    221928494                       # Number of insts commited each cycle
system.switch_cpus1.commit.committed_per_cycle::mean     0.532652                       # Number of insts commited each cycle
system.switch_cpus1.commit.committed_per_cycle::stdev     1.381136                       # Number of insts commited each cycle
system.switch_cpus1.commit.committed_per_cycle::underflows            0      0.00%      0.00% # Number of insts commited each cycle
system.switch_cpus1.commit.committed_per_cycle::0    173562447     78.21%     78.21% # Number of insts commited each cycle
system.switch_cpus1.commit.committed_per_cycle::1     23868687     10.76%     88.96% # Number of insts commited each cycle
system.switch_cpus1.commit.committed_per_cycle::2      9050470      4.08%     93.04% # Number of insts commited each cycle
system.switch_cpus1.commit.committed_per_cycle::3      4366201      1.97%     95.01% # Number of insts commited each cycle
system.switch_cpus1.commit.committed_per_cycle::4      3642804      1.64%     96.65% # Number of insts commited each cycle
system.switch_cpus1.commit.committed_per_cycle::5      2161093      0.97%     97.62% # Number of insts commited each cycle
system.switch_cpus1.commit.committed_per_cycle::6      1818429      0.82%     98.44% # Number of insts commited each cycle
system.switch_cpus1.commit.committed_per_cycle::7       811672      0.37%     98.81% # Number of insts commited each cycle
system.switch_cpus1.commit.committed_per_cycle::8      2646691      1.19%    100.00% # Number of insts commited each cycle
system.switch_cpus1.commit.committed_per_cycle::overflows            0      0.00%    100.00% # Number of insts commited each cycle
system.switch_cpus1.commit.committed_per_cycle::min_value            0                       # Number of insts commited each cycle
system.switch_cpus1.commit.committed_per_cycle::max_value            8                       # Number of insts commited each cycle
system.switch_cpus1.commit.committed_per_cycle::total    221928494                       # Number of insts commited each cycle
system.switch_cpus1.commit.committedInsts     96181210                       # Number of instructions committed
system.switch_cpus1.commit.committedOps     118210717                       # Number of ops (including micro ops) committed
system.switch_cpus1.commit.swp_count                0                       # Number of s/w prefetches committed
system.switch_cpus1.commit.refs              17784075                       # Number of memory references committed
system.switch_cpus1.commit.loads             10837558                       # Number of loads committed
system.switch_cpus1.commit.membars              16032                       # Number of memory barriers committed
system.switch_cpus1.commit.branches          16954086                       # Number of branches committed
system.switch_cpus1.commit.fp_insts                 0                       # Number of committed floating point instructions.
system.switch_cpus1.commit.int_insts        106551029                       # Number of committed integer instructions.
system.switch_cpus1.commit.function_calls      2411989                       # Number of function calls committed.
system.switch_cpus1.commit.bw_lim_events      2646691                       # number cycles where commit BW limit reached
system.switch_cpus1.commit.bw_limited               0                       # number of insts not committed due to BW limits
system.switch_cpus1.rob.rob_reads           355982722                       # The number of ROB reads
system.switch_cpus1.rob.rob_writes          276818549                       # The number of ROB writes
system.switch_cpus1.timesIdled                2992200                       # Number of times that the entire CPU went into an idle state and unscheduled itself
system.switch_cpus1.idleCycles               26534345                       # Total number of cycles that the CPU has spent unscheduled due to idling
system.switch_cpus1.committedInsts           96181210                       # Number of Instructions Simulated
system.switch_cpus1.committedOps            118210717                       # Number of Ops (including micro ops) Simulated
system.switch_cpus1.committedInsts_total     96181210                       # Number of Instructions Simulated
system.switch_cpus1.cpi                      2.618800                       # CPI: Cycles Per Instruction
system.switch_cpus1.cpi_total                2.618800                       # CPI: Total CPI of All Threads
system.switch_cpus1.ipc                      0.381854                       # IPC: Instructions Per Cycle
system.switch_cpus1.ipc_total                0.381854                       # IPC: Total IPC of All Threads
[...]
system.cpu1.icache.ReadReq_avg_miss_latency::total 188125.111111                       # average ReadReq miss latency
system.cpu1.icache.demand_avg_miss_latency::switch_cpus1.inst 188125.111111                       # average overall miss latency
system.cpu1.icache.demand_avg_miss_latency::total 188125.111111                       # average overall miss latency
system.cpu1.icache.overall_avg_miss_latency::switch_cpus1.inst 188125.111111                       # average overall miss latency
system.cpu1.icache.overall_avg_miss_latency::total 188125.111111                       # average overall miss latency
system.cpu1.icache.blocked_cycles::no_mshrs            0                       # number of cycles access was blocked
system.cpu1.icache.blocked_cycles::no_targets            0                       # number of cycles access was blocked
system.cpu1.icache.blocked::no_mshrs                0                       # number of cycles access was blocked
system.cpu1.icache.blocked::no_targets              0                       # number of cycles access was blocked
system.cpu1.icache.avg_blocked_cycles::no_mshrs          nan                       # average number of cycles each access was blocked
system.cpu1.icache.avg_blocked_cycles::no_targets          nan                       # average number of cycles each access was blocked
system.cpu1.icache.fast_writes                      0                       # number of fast writes performed
system.cpu1.icache.cache_copies                     0                       # number of cache copies performed
system.cpu1.icache.ReadReq_mshr_hits::switch_cpus1.inst            5                       # number of ReadReq MSHR hits
system.cpu1.icache.ReadReq_mshr_hits::total            5                       # number of ReadReq MSHR hits
system.cpu1.icache.demand_mshr_hits::switch_cpus1.inst            5                       # number of demand (read+write) MSHR hits
system.cpu1.icache.demand_mshr_hits::total            5                       # number of demand (read+write) MSHR hits
system.cpu1.icache.overall_mshr_hits::switch_cpus1.inst            5                       # number of overall MSHR hits
system.cpu1.icache.overall_mshr_hits::total            5                       # number of overall MSHR hits
system.cpu1.icache.ReadReq_mshr_misses::switch_cpus1.inst           13                       # number of ReadReq MSHR misses
system.cpu1.icache.ReadReq_mshr_misses::total           13                       # number of ReadReq MSHR misses
system.cpu1.icache.demand_mshr_misses::switch_cpus1.inst           13                       # number of demand (read+write) MSHR misses
system.cpu1.icache.demand_mshr_misses::total           13                       # number of demand (read+write) MSHR misses
system.cpu1.icache.overall_mshr_misses::switch_cpus1.inst           13                       # number of overall MSHR misses
system.cpu1.icache.overall_mshr_misses::total           13                       # number of overall MSHR misses
system.cpu1.icache.ReadReq_mshr_miss_latency::switch_cpus1.inst      2454709                       # number of ReadReq MSHR miss cycles
system.cpu1.icache.ReadReq_mshr_miss_latency::total      2454709                       # number of ReadReq MSHR miss cycles
system.cpu1.icache.demand_mshr_miss_latency::switch_cpus1.inst      2454709                       # number of demand (read+write) MSHR miss cycles
system.cpu1.icache.demand_mshr_miss_latency::total      2454709                       # number of demand (read+write) MSHR miss cycles
system.cpu1.icache.overall_mshr_miss_latency::switch_cpus1.inst      2454709                       # number of overall MSHR miss cycles
system.cpu1.icache.overall_mshr_miss_latency::total      2454709                       # number of overall MSHR miss cycles
system.cpu1.icache.ReadReq_mshr_miss_rate::switch_cpus1.inst     0.000001                       # mshr miss rate for ReadReq accesses
system.cpu1.icache.ReadReq_mshr_miss_rate::total     0.000001                       # mshr miss rate for ReadReq accesses
system.cpu1.icache.demand_mshr_miss_rate::switch_cpus1.inst     0.000001                       # mshr miss rate for demand accesses
system.cpu1.icache.demand_mshr_miss_rate::total     0.000001                       # mshr miss rate for demand accesses
system.cpu1.icache.overall_mshr_miss_rate::switch_cpus1.inst     0.000001                       # mshr miss rate for overall accesses
system.cpu1.icache.overall_mshr_miss_rate::total     0.000001                       # mshr miss rate for overall accesses
system.cpu1.icache.ReadReq_avg_mshr_miss_latency::switch_cpus1.inst 188823.769231                       # average ReadReq mshr miss latency
system.cpu1.icache.ReadReq_avg_mshr_miss_latency::total 188823.769231                       # average ReadReq mshr miss latency
system.cpu1.icache.demand_avg_mshr_miss_latency::switch_cpus1.inst 188823.769231                       # average overall mshr miss latency
system.cpu1.icache.demand_avg_mshr_miss_latency::total 188823.769231                       # average overall mshr miss latency
system.cpu1.icache.overall_avg_mshr_miss_latency::switch_cpus1.inst 188823.769231                       # average overall mshr miss latency
system.cpu1.icache.overall_avg_mshr_miss_latency::total 188823.769231                       # average overall mshr miss latency
system.cpu1.icache.no_allocate_misses               0                       # Number of misses that were no-allocate
system.cpu1.dcache.replacements                 50574                       # number of replacements
system.cpu1.dcache.tagsinuse                      256                       # Cycle average of tags in use
system.cpu1.dcache.total_refs               170954406                       # Total number of references to valid blocks.
system.cpu1.dcache.sampled_refs                 50830                       # Sample count of references to valid blocks.
system.cpu1.dcache.avg_refs               3363.258037                       # Average number of references to valid blocks.
system.cpu1.dcache.warmup_cycle                     0                       # Cycle when the warmup percentage was hit.
system.cpu1.dcache.occ_blocks::switch_cpus1.data   233.206228                       # Average occupied blocks per requestor
system.cpu1.dcache.occ_blocks::cpu1.data    22.793772                       # Average occupied blocks per requestor
system.cpu1.dcache.occ_percent::switch_cpus1.data     0.910962                       # Average percentage of cache occupancy
system.cpu1.dcache.occ_percent::cpu1.data     0.089038                       # Average percentage of cache occupancy
system.cpu1.dcache.occ_percent::total               1                       # Average percentage of cache occupancy
system.cpu1.dcache.ReadReq_hits::switch_cpus1.data      8248215                       # number of ReadReq hits
system.cpu1.dcache.ReadReq_hits::total        8248215                       # number of ReadReq hits
system.cpu1.dcache.WriteReq_hits::switch_cpus1.data      6910615                       # number of WriteReq hits
system.cpu1.dcache.WriteReq_hits::total       6910615                       # number of WriteReq hits
system.cpu1.dcache.LoadLockedReq_hits::switch_cpus1.data        16839                       # number of LoadLockedReq hits
system.cpu1.dcache.LoadLockedReq_hits::total        16839                       # number of LoadLockedReq hits
system.cpu1.dcache.StoreCondReq_hits::switch_cpus1.data        16032                       # number of StoreCondReq hits
system.cpu1.dcache.StoreCondReq_hits::total        16032                       # number of StoreCondReq hits
system.cpu1.dcache.demand_hits::switch_cpus1.data     15158830                       # number of demand (read+write) hits
system.cpu1.dcache.demand_hits::total        15158830                       # number of demand (read+write) hits
system.cpu1.dcache.overall_hits::switch_cpus1.data     15158830                       # number of overall hits
system.cpu1.dcache.overall_hits::total       15158830                       # number of overall hits
system.cpu1.dcache.ReadReq_misses::switch_cpus1.data       143096                       # number of ReadReq misses
system.cpu1.dcache.ReadReq_misses::total       143096                       # number of ReadReq misses
system.cpu1.dcache.WriteReq_misses::switch_cpus1.data         2862                       # number of WriteReq misses
system.cpu1.dcache.WriteReq_misses::total         2862                       # number of WriteReq misses
system.cpu1.dcache.demand_misses::switch_cpus1.data       145958                       # number of demand (read+write) misses
system.cpu1.dcache.demand_misses::total        145958                       # number of demand (read+write) misses
system.cpu1.dcache.overall_misses::switch_cpus1.data       145958                       # number of overall misses
system.cpu1.dcache.overall_misses::total       145958                       # number of overall misses
system.cpu1.dcache.ReadReq_miss_latency::switch_cpus1.data  26647301551                       # number of ReadReq miss cycles
system.cpu1.dcache.ReadReq_miss_latency::total  26647301551                       # number of ReadReq miss cycles
system.cpu1.dcache.WriteReq_miss_latency::switch_cpus1.data    513436934                       # number of WriteReq miss cycles
system.cpu1.dcache.WriteReq_miss_latency::total    513436934                       # number of WriteReq miss cycles
system.cpu1.dcache.demand_miss_latency::switch_cpus1.data  27160738485                       # number of demand (read+write) miss cycles
system.cpu1.dcache.demand_miss_latency::total  27160738485                       # number of demand (read+write) miss cycles
system.cpu1.dcache.overall_miss_latency::switch_cpus1.data  27160738485                       # number of overall miss cycles
system.cpu1.dcache.overall_miss_latency::total  27160738485                       # number of overall miss cycles
system.cpu1.dcache.ReadReq_accesses::switch_cpus1.data      8391311                       # number of ReadReq accesses(hits+misses)
system.cpu1.dcache.ReadReq_accesses::total      8391311                       # number of ReadReq accesses(hits+misses)
system.cpu1.dcache.WriteReq_accesses::switch_cpus1.data      6913477                       # number of WriteReq accesses(hits+misses)
system.cpu1.dcache.WriteReq_accesses::total      6913477                       # number of WriteReq accesses(hits+misses)
system.cpu1.dcache.LoadLockedReq_accesses::switch_cpus1.data        16839                       # number of LoadLockedReq accesses(hits+misses)
system.cpu1.dcache.LoadLockedReq_accesses::total        16839                       # number of LoadLockedReq accesses(hits+misses)
system.cpu1.dcache.StoreCondReq_accesses::switch_cpus1.data        16032                       # number of StoreCondReq accesses(hits+misses)
system.cpu1.dcache.StoreCondReq_accesses::total        16032                       # number of StoreCondReq accesses(hits+misses)
system.cpu1.dcache.demand_accesses::switch_cpus1.data     15304788                       # number of demand (read+write) accesses
system.cpu1.dcache.demand_accesses::total     15304788                       # number of demand (read+write) accesses
system.cpu1.dcache.overall_accesses::switch_cpus1.data     15304788                       # number of overall (read+write) accesses
system.cpu1.dcache.overall_accesses::total     15304788                       # number of overall (read+write) accesses
system.cpu1.dcache.ReadReq_miss_rate::switch_cpus1.data     0.017053                       # miss rate for ReadReq accesses
system.cpu1.dcache.ReadReq_miss_rate::total     0.017053                       # miss rate for ReadReq accesses
system.cpu1.dcache.WriteReq_miss_rate::switch_cpus1.data     0.000414                       # miss rate for WriteReq accesses
system.cpu1.dcache.WriteReq_miss_rate::total     0.000414                       # miss rate for WriteReq accesses
system.cpu1.dcache.demand_miss_rate::switch_cpus1.data     0.009537                       # miss rate for demand accesses
system.cpu1.dcache.demand_miss_rate::total     0.009537                       # miss rate for demand accesses
system.cpu1.dcache.overall_miss_rate::switch_cpus1.data     0.009537                       # miss rate for overall accesses
system.cpu1.dcache.overall_miss_rate::total     0.009537                       # miss rate for overall accesses
system.cpu1.dcache.ReadReq_avg_miss_latency::switch_cpus1.data 186219.751433                       # average ReadReq miss latency
system.cpu1.dcache.ReadReq_avg_miss_latency::total 186219.751433                       # average ReadReq miss latency
system.cpu1.dcache.WriteReq_avg_miss_latency::switch_cpus1.data 179397.950384                       # average WriteReq miss latency
system.cpu1.dcache.WriteReq_avg_miss_latency::total 179397.950384                       # average WriteReq miss latency
system.cpu1.dcache.demand_avg_miss_latency::switch_cpus1.data 186085.986962                       # average overall miss latency
system.cpu1.dcache.demand_avg_miss_latency::total 186085.986962                       # average overall miss latency
system.cpu1.dcache.overall_avg_miss_latency::switch_cpus1.data 186085.986962                       # average overall miss latency
system.cpu1.dcache.overall_avg_miss_latency::total 186085.986962                       # average overall miss latency
system.cpu1.dcache.blocked_cycles::no_mshrs            0                       # number of cycles access was blocked
system.cpu1.dcache.blocked_cycles::no_targets      1434819                       # number of cycles access was blocked
system.cpu1.dcache.blocked::no_mshrs                0                       # number of cycles access was blocked
system.cpu1.dcache.blocked::no_targets             11                       # number of cycles access was blocked
system.cpu1.dcache.avg_blocked_cycles::no_mshrs          nan                       # average number of cycles each access was blocked
system.cpu1.dcache.avg_blocked_cycles::no_targets 130438.090909                       # average number of cycles each access was blocked
system.cpu1.dcache.fast_writes                      0                       # number of fast writes performed
system.cpu1.dcache.cache_copies                     0                       # number of cache copies performed
system.cpu1.dcache.writebacks::writebacks        15399                       # number of writebacks
system.cpu1.dcache.writebacks::total            15399                       # number of writebacks
system.cpu1.dcache.ReadReq_mshr_hits::switch_cpus1.data        92525                       # number of ReadReq MSHR hits
system.cpu1.dcache.ReadReq_mshr_hits::total        92525                       # number of ReadReq MSHR hits
system.cpu1.dcache.WriteReq_mshr_hits::switch_cpus1.data         2859                       # number of WriteReq MSHR hits
system.cpu1.dcache.WriteReq_mshr_hits::total         2859                       # number of WriteReq MSHR hits
system.cpu1.dcache.demand_mshr_hits::switch_cpus1.data        95384                       # number of demand (read+write) MSHR hits
system.cpu1.dcache.demand_mshr_hits::total        95384                       # number of demand (read+write) MSHR hits
system.cpu1.dcache.overall_mshr_hits::switch_cpus1.data        95384                       # number of overall MSHR hits
system.cpu1.dcache.overall_mshr_hits::total        95384                       # number of overall MSHR hits
system.cpu1.dcache.ReadReq_mshr_misses::switch_cpus1.data        50571                       # number of ReadReq MSHR misses
system.cpu1.dcache.ReadReq_mshr_misses::total        50571                       # number of ReadReq MSHR misses
system.cpu1.dcache.WriteReq_mshr_misses::switch_cpus1.data            3                       # number of WriteReq MSHR misses
system.cpu1.dcache.WriteReq_mshr_misses::total            3                       # number of WriteReq MSHR misses
system.cpu1.dcache.demand_mshr_misses::switch_cpus1.data        50574                       # number of demand (read+write) MSHR misses
system.cpu1.dcache.demand_mshr_misses::total        50574                       # number of demand (read+write) MSHR misses
system.cpu1.dcache.overall_mshr_misses::switch_cpus1.data        50574                       # number of overall MSHR misses
system.cpu1.dcache.overall_mshr_misses::total        50574                       # number of overall MSHR misses
system.cpu1.dcache.ReadReq_mshr_miss_latency::switch_cpus1.data   8806998332                       # number of ReadReq MSHR miss cycles
system.cpu1.dcache.ReadReq_mshr_miss_latency::total   8806998332                       # number of ReadReq MSHR miss cycles
system.cpu1.dcache.WriteReq_mshr_miss_latency::switch_cpus1.data       571207                       # number of WriteReq MSHR miss cycles
system.cpu1.dcache.WriteReq_mshr_miss_latency::total       571207                       # number of WriteReq MSHR miss cycles
system.cpu1.dcache.demand_mshr_miss_latency::switch_cpus1.data   8807569539                       # number of demand (read+write) MSHR miss cycles
system.cpu1.dcache.demand_mshr_miss_latency::total   8807569539                       # number of demand (read+write) MSHR miss cycles
system.cpu1.dcache.overall_mshr_miss_latency::switch_cpus1.data   8807569539                       # number of overall MSHR miss cycles
system.cpu1.dcache.overall_mshr_miss_latency::total   8807569539                       # number of overall MSHR miss cycles
system.cpu1.dcache.ReadReq_mshr_miss_rate::switch_cpus1.data     0.006027                       # mshr miss rate for ReadReq accesses
system.cpu1.dcache.ReadReq_mshr_miss_rate::total     0.006027                       # mshr miss rate for ReadReq accesses
system.cpu1.dcache.WriteReq_mshr_miss_rate::switch_cpus1.data     0.000000                       # mshr miss rate for WriteReq accesses
system.cpu1.dcache.WriteReq_mshr_miss_rate::total     0.000000                       # mshr miss rate for WriteReq accesses
system.cpu1.dcache.demand_mshr_miss_rate::switch_cpus1.data     0.003304                       # mshr miss rate for demand accesses
system.cpu1.dcache.demand_mshr_miss_rate::total     0.003304                       # mshr miss rate for demand accesses
system.cpu1.dcache.overall_mshr_miss_rate::switch_cpus1.data     0.003304                       # mshr miss rate for overall accesses
system.cpu1.dcache.overall_mshr_miss_rate::total     0.003304                       # mshr miss rate for overall accesses
system.cpu1.dcache.ReadReq_avg_mshr_miss_latency::switch_cpus1.data 174151.160388                       # average ReadReq mshr miss latency
system.cpu1.dcache.ReadReq_avg_mshr_miss_latency::total 174151.160388                       # average ReadReq mshr miss latency
system.cpu1.dcache.WriteReq_avg_mshr_miss_latency::switch_cpus1.data 190402.333333                       # average WriteReq mshr miss latency
system.cpu1.dcache.WriteReq_avg_mshr_miss_latency::total 190402.333333                       # average WriteReq mshr miss latency
system.cpu1.dcache.demand_avg_mshr_miss_latency::switch_cpus1.data 174152.124392                       # average overall mshr miss latency
system.cpu1.dcache.demand_avg_mshr_miss_latency::total 174152.124392                       # average overall mshr miss latency
system.cpu1.dcache.overall_avg_mshr_miss_latency::switch_cpus1.data 174152.124392                       # average overall mshr miss latency
system.cpu1.dcache.overall_avg_mshr_miss_latency::total 174152.124392                       # average overall mshr miss latency
system.cpu1.dcache.no_allocate_misses               0                       # Number of misses that were no-allocate

---------- End Simulation Statistics   ----------
