
---------- Begin Simulation Statistics ----------
sim_seconds                                  0.003595                       # Number of seconds simulated
sim_ticks                                  3594630072                       # Number of ticks simulated
final_tick                               530587068684                       # Number of ticks from beginning of simulation (restored from checkpoints and never reset)
sim_freq                                 1000000000000                       # Frequency of simulated ticks
host_inst_rate                                 387114                       # Simulator instruction rate (inst/s)
host_op_rate                                   489394                       # Simulator op (including micro ops) rate (op/s)
host_tick_rate                                 344618                       # Simulator tick rate (ticks/s)
host_mem_usage                               16914072                       # Number of bytes of host memory used
host_seconds                                 10430.76                       # Real time elapsed on the host
sim_insts                                  4037898676                       # Number of instructions simulated
sim_ops                                    5104749458                       # Number of ops (including micro ops) simulated
system.physmem.bytes_read::switch_cpus0.inst         5376                       # Number of bytes read from this memory
system.physmem.bytes_read::switch_cpus0.data       379136                       # Number of bytes read from this memory
system.physmem.bytes_read::switch_cpus1.inst         5376                       # Number of bytes read from this memory
system.physmem.bytes_read::switch_cpus1.data       169088                       # Number of bytes read from this memory
system.physmem.bytes_read::switch_cpus2.inst         4608                       # Number of bytes read from this memory
system.physmem.bytes_read::switch_cpus2.data       130304                       # Number of bytes read from this memory
system.physmem.bytes_read::switch_cpus3.inst         5760                       # Number of bytes read from this memory
system.physmem.bytes_read::switch_cpus3.data       234752                       # Number of bytes read from this memory
system.physmem.bytes_read::total               934400                       # Number of bytes read from this memory
system.physmem.bytes_inst_read::switch_cpus0.inst         5376                       # Number of instructions bytes read from this memory
system.physmem.bytes_inst_read::switch_cpus1.inst         5376                       # Number of instructions bytes read from this memory
system.physmem.bytes_inst_read::switch_cpus2.inst         4608                       # Number of instructions bytes read from this memory
system.physmem.bytes_inst_read::switch_cpus3.inst         5760                       # Number of instructions bytes read from this memory
system.physmem.bytes_inst_read::total           21120                       # Number of instructions bytes read from this memory
system.physmem.bytes_written::writebacks       341120                       # Number of bytes written to this memory
system.physmem.bytes_written::total            341120                       # Number of bytes written to this memory
system.physmem.num_reads::switch_cpus0.inst           42                       # Number of read requests responded to by this memory
system.physmem.num_reads::switch_cpus0.data         2962                       # Number of read requests responded to by this memory
system.physmem.num_reads::switch_cpus1.inst           42                       # Number of read requests responded to by this memory
system.physmem.num_reads::switch_cpus1.data         1321                       # Number of read requests responded to by this memory
system.physmem.num_reads::switch_cpus2.inst           36                       # Number of read requests responded to by this memory
system.physmem.num_reads::switch_cpus2.data         1018                       # Number of read requests responded to by this memory
system.physmem.num_reads::switch_cpus3.inst           45                       # Number of read requests responded to by this memory
system.physmem.num_reads::switch_cpus3.data         1834                       # Number of read requests responded to by this memory
system.physmem.num_reads::total                  7300                       # Number of read requests responded to by this memory
system.physmem.num_writes::writebacks            2665                       # Number of write requests responded to by this memory
system.physmem.num_writes::functional               0                       # Number of write requests responded to by this memory
system.physmem.num_writes::interrupt                0                       # Number of write requests responded to by this memory
system.physmem.num_writes::switch_cpus0.dtb.walker            0                       # Number of write requests responded to by this memory
system.physmem.num_writes::switch_cpus0.itb.walker            0                       # Number of write requests responded to by this memory
system.physmem.num_writes::switch_cpus0.inst            0                       # Number of write requests responded to by this memory
system.physmem.num_writes::switch_cpus0.data            0                       # Number of write requests responded to by this memory
system.physmem.num_writes::switch_cpus1.dtb.walker            0                       # Number of write requests responded to by this memory
system.physmem.num_writes::switch_cpus1.itb.walker            0                       # Number of write requests responded to by this memory
system.physmem.num_writes::switch_cpus1.inst            0                       # Number of write requests responded to by this memory
system.physmem.num_writes::switch_cpus1.data            0                       # Number of write requests responded to by this memory
system.physmem.num_writes::switch_cpus2.dtb.walker            0                       # Number of write requests responded to by this memory
system.physmem.num_writes::switch_cpus2.itb.walker            0                       # Number of write requests responded to by this memory
system.physmem.num_writes::switch_cpus2.inst            0                       # Number of write requests responded to by this memory
system.physmem.num_writes::switch_cpus2.data            0                       # Number of write requests responded to by this memory
system.physmem.num_writes::switch_cpus3.dtb.walker            0                       # Number of write requests responded to by this memory
system.physmem.num_writes::switch_cpus3.itb.walker            0                       # Number of write requests responded to by this memory
system.physmem.num_writes::switch_cpus3.inst            0                       # Number of write requests responded to by this memory
system.physmem.num_writes::switch_cpus3.data            0                       # Number of write requests responded to by this memory
system.physmem.num_writes::cpu0.dtb.walker            0                       # Number of write requests responded to by this memory
system.physmem.num_writes::cpu0.itb.walker            0                       # Number of write requests responded to by this memory
system.physmem.num_writes::cpu0.inst                0                       # Number of write requests responded to by this memory
system.physmem.num_writes::cpu0.data                0                       # Number of write requests responded to by this memory
system.physmem.num_writes::cpu1.dtb.walker            0                       # Number of write requests responded to by this memory
system.physmem.num_writes::cpu1.itb.walker            0                       # Number of write requests responded to by this memory
system.physmem.num_writes::cpu1.inst                0                       # Number of write requests responded to by this memory
system.physmem.num_writes::cpu1.data                0                       # Number of write requests responded to by this memory
system.physmem.num_writes::cpu2.dtb.walker            0                       # Number of write requests responded to by this memory
system.physmem.num_writes::cpu2.itb.walker            0                       # Number of write requests responded to by this memory
system.physmem.num_writes::cpu2.inst                0                       # Number of write requests responded to by this memory
system.physmem.num_writes::cpu2.data                0                       # Number of write requests responded to by this memory
system.physmem.num_writes::cpu3.dtb.walker            0                       # Number of write requests responded to by this memory
system.physmem.num_writes::cpu3.itb.walker            0                       # Number of write requests responded to by this memory
system.physmem.num_writes::cpu3.inst                0                       # Number of write requests responded to by this memory
system.physmem.num_writes::cpu3.data                0                       # Number of write requests responded to by this memory
system.physmem.num_writes::total                 2665                       # Number of write requests responded to by this memory
system.physmem.bw_read::switch_cpus0.inst      1495564                       # Total read bandwidth from this memory (bytes/s)
system.physmem.bw_read::switch_cpus0.data    105472884                       # Total read bandwidth from this memory (bytes/s)
system.physmem.bw_read::switch_cpus1.inst      1495564                       # Total read bandwidth from this memory (bytes/s)
system.physmem.bw_read::switch_cpus1.data     47039055                       # Total read bandwidth from this memory (bytes/s)
system.physmem.bw_read::switch_cpus2.inst      1281912                       # Total read bandwidth from this memory (bytes/s)
system.physmem.bw_read::switch_cpus2.data     36249627                       # Total read bandwidth from this memory (bytes/s)
system.physmem.bw_read::switch_cpus3.inst      1602390                       # Total read bandwidth from this memory (bytes/s)
system.physmem.bw_read::switch_cpus3.data     65306303                       # Total read bandwidth from this memory (bytes/s)
system.physmem.bw_read::total               259943299                       # Total read bandwidth from this memory (bytes/s)
system.physmem.bw_inst_read::switch_cpus0.inst      1495564                       # Instruction read bandwidth from this memory (bytes/s)
system.physmem.bw_inst_read::switch_cpus1.inst      1495564                       # Instruction read bandwidth from this memory (bytes/s)
system.physmem.bw_inst_read::switch_cpus2.inst      1281912                       # Instruction read bandwidth from this memory (bytes/s)
system.physmem.bw_inst_read::switch_cpus3.inst      1602390                       # Instruction read bandwidth from this memory (bytes/s)
system.physmem.bw_inst_read::total            5875431                       # Instruction read bandwidth from this memory (bytes/s)
system.physmem.bw_write::writebacks          94897109                       # Write bandwidth from this memory (bytes/s)
system.physmem.bw_write::total               94897109                       # Write bandwidth from this memory (bytes/s)
system.physmem.bw_total::writebacks          94897109                       # Total bandwidth to/from this memory (bytes/s)
system.physmem.bw_total::switch_cpus0.inst      1495564                       # Total bandwidth to/from this memory (bytes/s)
system.physmem.bw_total::switch_cpus0.data    105472884                       # Total bandwidth to/from this memory (bytes/s)
system.physmem.bw_total::switch_cpus1.inst      1495564                       # Total bandwidth to/from this memory (bytes/s)
system.physmem.bw_total::switch_cpus1.data     47039055                       # Total bandwidth to/from this memory (bytes/s)
system.physmem.bw_total::switch_cpus2.inst      1281912                       # Total bandwidth to/from this memory (bytes/s)
system.physmem.bw_total::switch_cpus2.data     36249627                       # Total bandwidth to/from this memory (bytes/s)
system.physmem.bw_total::switch_cpus3.inst      1602390                       # Total bandwidth to/from this memory (bytes/s)
system.physmem.bw_total::switch_cpus3.data     65306303                       # Total bandwidth to/from this memory (bytes/s)
system.physmem.bw_total::total              354840408                       # Total bandwidth to/from this memory (bytes/s)
system.switch_cpus0.dtb.inst_hits                   0                       # ITB inst hits
system.switch_cpus0.dtb.inst_misses                 0                       # ITB inst misses
system.switch_cpus0.dtb.read_hits                   0                       # DTB read hits
system.switch_cpus0.dtb.read_misses                 0                       # DTB read misses
system.switch_cpus0.dtb.write_hits                  0                       # DTB write hits
system.switch_cpus0.dtb.write_misses                0                       # DTB write misses
system.switch_cpus0.dtb.flush_tlb                   0                       # Number of times complete TLB was flushed
system.switch_cpus0.dtb.flush_tlb_mva               0                       # Number of times TLB was flushed by MVA
system.switch_cpus0.dtb.flush_tlb_mva_asid            0                       # Number of times TLB was flushed by MVA & ASID
system.switch_cpus0.dtb.flush_tlb_asid              0                       # Number of times TLB was flushed by ASID
system.switch_cpus0.dtb.flush_entries               0                       # Number of entries that have been flushed from TLB
system.switch_cpus0.dtb.align_faults                0                       # Number of TLB faults due to alignment restrictions
system.switch_cpus0.dtb.prefetch_faults             0                       # Number of TLB faults due to prefetch
system.switch_cpus0.dtb.domain_faults               0                       # Number of TLB faults due to domain restrictions
system.switch_cpus0.dtb.perms_faults                0                       # Number of TLB faults due to permissions restrictions
system.switch_cpus0.dtb.read_accesses               0                       # DTB read accesses
system.switch_cpus0.dtb.write_accesses              0                       # DTB write accesses
system.switch_cpus0.dtb.inst_accesses               0                       # ITB inst accesses
system.switch_cpus0.dtb.hits                        0                       # DTB hits
system.switch_cpus0.dtb.misses                      0                       # DTB misses
system.switch_cpus0.dtb.accesses                    0                       # DTB accesses
system.switch_cpus0.itb.inst_hits                   0                       # ITB inst hits
system.switch_cpus0.itb.inst_misses                 0                       # ITB inst misses
system.switch_cpus0.itb.read_hits                   0                       # DTB read hits
system.switch_cpus0.itb.read_misses                 0                       # DTB read misses
system.switch_cpus0.itb.write_hits                  0                       # DTB write hits
system.switch_cpus0.itb.write_misses                0                       # DTB write misses
system.switch_cpus0.itb.flush_tlb                   0                       # Number of times complete TLB was flushed
system.switch_cpus0.itb.flush_tlb_mva               0                       # Number of times TLB was flushed by MVA
system.switch_cpus0.itb.flush_tlb_mva_asid            0                       # Number of times TLB was flushed by MVA & ASID
system.switch_cpus0.itb.flush_tlb_asid              0                       # Number of times TLB was flushed by ASID
system.switch_cpus0.itb.flush_entries               0                       # Number of entries that have been flushed from TLB
system.switch_cpus0.itb.align_faults                0                       # Number of TLB faults due to alignment restrictions
system.switch_cpus0.itb.prefetch_faults             0                       # Number of TLB faults due to prefetch
system.switch_cpus0.itb.domain_faults               0                       # Number of TLB faults due to domain restrictions
system.switch_cpus0.itb.perms_faults                0                       # Number of TLB faults due to permissions restrictions
system.switch_cpus0.itb.read_accesses               0                       # DTB read accesses
system.switch_cpus0.itb.write_accesses              0                       # DTB write accesses
system.switch_cpus0.itb.inst_accesses               0                       # ITB inst accesses
system.switch_cpus0.itb.hits                        0                       # DTB hits
system.switch_cpus0.itb.misses                      0                       # DTB misses
system.switch_cpus0.itb.accesses                    0                       # DTB accesses
system.cpu0.workload.num_syscalls                  13                       # Number of system calls
system.switch_cpus0.numCycles                 8620217                       # number of cpu cycles simulated
system.switch_cpus0.numWorkItemsStarted             0                       # number of work items this cpu started
system.switch_cpus0.numWorkItemsCompleted            0                       # number of work items this cpu completed
system.switch_cpus0.BPredUnit.lookups         3143770                       # Number of BP lookups
system.switch_cpus0.BPredUnit.condPredicted      2550017                       # Number of conditional branches predicted
system.switch_cpus0.BPredUnit.condIncorrect       213937                       # Number of conditional branches incorrect
system.switch_cpus0.BPredUnit.BTBLookups      1293208                       # Number of BTB lookups
system.switch_cpus0.BPredUnit.BTBHits         1237732                       # Number of BTB hits
system.switch_cpus0.BPredUnit.BTBCorrect            0                       # Number of correct BTB predictions (this stat may not work properly.
system.switch_cpus0.BPredUnit.usedRAS          333733                       # Number of times the RAS was used to get a target.
system.switch_cpus0.BPredUnit.RASInCorrect         9236                       # Number of incorrect RAS predictions.
system.switch_cpus0.fetch.icacheStallCycles      3289336                       # Number of cycles fetch is stalled on an Icache miss
system.switch_cpus0.fetch.Insts              17322625                       # Number of instructions fetch has processed
system.switch_cpus0.fetch.Branches            3143770                       # Number of branches that fetch encountered
system.switch_cpus0.fetch.predictedBranches      1571465                       # Number of branches that fetch has predicted taken
system.switch_cpus0.fetch.Cycles              3656946                       # Number of cycles fetch has run and was not squashing or blocked
system.switch_cpus0.fetch.SquashCycles        1126791                       # Number of cycles fetch has spent squashing
system.switch_cpus0.fetch.BlockedCycles        586578                       # Number of cycles fetch has spent blocked
system.switch_cpus0.fetch.PendingTrapStallCycles           41                       # Number of stall cycles due to pending traps
system.switch_cpus0.fetch.CacheLines          1619640                       # Number of cache lines fetched
system.switch_cpus0.fetch.IcacheSquashes        99426                       # Number of outstanding Icache misses that were squashed
system.switch_cpus0.fetch.rateDist::samples      8440845                       # Number of instructions fetched each cycle (Total)
system.switch_cpus0.fetch.rateDist::mean     2.530854                       # Number of instructions fetched each cycle (Total)
system.switch_cpus0.fetch.rateDist::stdev     3.326456                       # Number of instructions fetched each cycle (Total)
system.switch_cpus0.fetch.rateDist::underflows            0      0.00%      0.00% # Number of instructions fetched each cycle (Total)
system.switch_cpus0.fetch.rateDist::0         4783899     56.68%     56.68% # Number of instructions fetched each cycle (Total)
system.switch_cpus0.fetch.rateDist::1          229301      2.72%     59.39% # Number of instructions fetched each cycle (Total)
system.switch_cpus0.fetch.rateDist::2          259338      3.07%     62.46% # Number of instructions fetched each cycle (Total)
system.switch_cpus0.fetch.rateDist::3          474982      5.63%     68.09% # Number of instructions fetched each cycle (Total)
system.switch_cpus0.fetch.rateDist::4          215018      2.55%     70.64% # Number of instructions fetched each cycle (Total)
system.switch_cpus0.fetch.rateDist::5          327910      3.88%     74.52% # Number of instructions fetched each cycle (Total)
system.switch_cpus0.fetch.rateDist::6          179357      2.12%     76.65% # Number of instructions fetched each cycle (Total)
system.switch_cpus0.fetch.rateDist::7          154461      1.83%     78.48% # Number of instructions fetched each cycle (Total)
system.switch_cpus0.fetch.rateDist::8         1816579     21.52%    100.00% # Number of instructions fetched each cycle (Total)
system.switch_cpus0.fetch.rateDist::overflows            0      0.00%    100.00% # Number of instructions fetched each cycle (Total)
system.switch_cpus0.fetch.rateDist::min_value            0                       # Number of instructions fetched each cycle (Total)
system.switch_cpus0.fetch.rateDist::max_value            8                       # Number of instructions fetched each cycle (Total)
system.switch_cpus0.fetch.rateDist::total      8440845                       # Number of instructions fetched each cycle (Total)
system.switch_cpus0.fetch.branchRate         0.364697                       # Number of branch fetches per cycle
system.switch_cpus0.fetch.rate               2.009535                       # Number of inst fetches per cycle
system.switch_cpus0.decode.IdleCycles         3471980                       # Number of cycles decode is idle
system.switch_cpus0.decode.BlockedCycles       537854                       # Number of cycles decode is blocked
system.switch_cpus0.decode.RunCycles          3489630                       # Number of cycles decode is running
system.switch_cpus0.decode.UnblockCycles        35525                       # Number of cycles decode is unblocking
system.switch_cpus0.decode.SquashCycles        905855                       # Number of cycles decode is squashing
system.switch_cpus0.decode.BranchResolved       535631                       # Number of times decode resolved a branch
system.switch_cpus0.decode.BranchMispred         2116                       # Number of times decode detected a branch misprediction
system.switch_cpus0.decode.DecodedInsts      20626545                       # Number of instructions handled by decode
system.switch_cpus0.decode.SquashedInsts         4971                       # Number of squashed instructions handled by decode
system.switch_cpus0.rename.SquashCycles        905855                       # Number of cycles rename is squashing
system.switch_cpus0.rename.IdleCycles         3661710                       # Number of cycles rename is idle
system.switch_cpus0.rename.BlockCycles         144956                       # Number of cycles rename is blocking
system.switch_cpus0.rename.serializeStallCycles       131306                       # count of cycles rename stalled for serializing inst
system.switch_cpus0.rename.RunCycles          3331080                       # Number of cycles rename is running
system.switch_cpus0.rename.UnblockCycles       265933                       # Number of cycles rename is unblocking
system.switch_cpus0.rename.RenamedInsts      19820242                       # Number of instructions processed by rename
system.switch_cpus0.rename.ROBFullEvents         4589                       # Number of times rename has blocked due to ROB full
system.switch_cpus0.rename.IQFullEvents        142187                       # Number of times rename has blocked due to IQ full
system.switch_cpus0.rename.LSQFullEvents        77712                       # Number of times rename has blocked due to LSQ full
system.switch_cpus0.rename.FullRegisterEvents         1291                       # Number of times there has been no free registers
system.switch_cpus0.rename.RenamedOperands     27752090                       # Number of destination operands rename has renamed
system.switch_cpus0.rename.RenameLookups     92316798                       # Number of register rename lookups that rename has made
system.switch_cpus0.rename.int_rename_lookups     92316798                       # Number of integer rename lookups
system.switch_cpus0.rename.CommittedMaps     17060664                       # Number of HB maps that are committed
system.switch_cpus0.rename.UndoneMaps        10691390                       # Number of HB maps that are undone due to squashing
system.switch_cpus0.rename.serializingInsts         4072                       # count of serializing insts renamed
system.switch_cpus0.rename.tempSerializingInsts         2417                       # count of temporary serializing insts renamed
system.switch_cpus0.rename.skidInsts           679908                       # count of insts added to the skid buffer
system.switch_cpus0.memDep0.insertedLoads      1849142                       # Number of loads inserted to the mem dependence unit.
system.switch_cpus0.memDep0.insertedStores       944255                       # Number of stores inserted to the mem dependence unit.
system.switch_cpus0.memDep0.conflictingLoads        14019                       # Number of conflicting loads.
system.switch_cpus0.memDep0.conflictingStores       284195                       # Number of conflicting stores.
system.switch_cpus0.iq.iqInstsAdded          18618717                       # Number of instructions added to the IQ (excludes non-spec)
system.switch_cpus0.iq.iqNonSpecInstsAdded         4071                       # Number of non-speculative instructions added to the IQ
system.switch_cpus0.iq.iqInstsIssued         14987300                       # Number of instructions issued
system.switch_cpus0.iq.iqSquashedInstsIssued        29499                       # Number of squashed instructions issued
system.switch_cpus0.iq.iqSquashedInstsExamined      6295501                       # Number of squashed instructions iterated over during squash; mainly for profiling
system.switch_cpus0.iq.iqSquashedOperandsExamined     18839456                       # Number of squashed operands that are examined and possibly removed from graph
system.switch_cpus0.iq.iqSquashedNonSpecRemoved          702                       # Number of squashed non-spec instructions that were removed
system.switch_cpus0.iq.issued_per_cycle::samples      8440845                       # Number of insts issued each cycle
system.switch_cpus0.iq.issued_per_cycle::mean     1.775569                       # Number of insts issued each cycle
system.switch_cpus0.iq.issued_per_cycle::stdev     1.924507                       # Number of insts issued each cycle
system.switch_cpus0.iq.issued_per_cycle::underflows            0      0.00%      0.00% # Number of insts issued each cycle
system.switch_cpus0.iq.issued_per_cycle::0      2957259     35.04%     35.04% # Number of insts issued each cycle
system.switch_cpus0.iq.issued_per_cycle::1      1792652     21.24%     56.27% # Number of insts issued each cycle
system.switch_cpus0.iq.issued_per_cycle::2      1213052     14.37%     70.64% # Number of insts issued each cycle
system.switch_cpus0.iq.issued_per_cycle::3       844154     10.00%     80.64% # Number of insts issued each cycle
system.switch_cpus0.iq.issued_per_cycle::4       710964      8.42%     89.07% # Number of insts issued each cycle
system.switch_cpus0.iq.issued_per_cycle::5       381627      4.52%     93.59% # Number of insts issued each cycle
system.switch_cpus0.iq.issued_per_cycle::6       378758      4.49%     98.08% # Number of insts issued each cycle
system.switch_cpus0.iq.issued_per_cycle::7        87489      1.04%     99.11% # Number of insts issued each cycle
system.switch_cpus0.iq.issued_per_cycle::8        74890      0.89%    100.00% # Number of insts issued each cycle
system.switch_cpus0.iq.issued_per_cycle::overflows            0      0.00%    100.00% # Number of insts issued each cycle
system.switch_cpus0.iq.issued_per_cycle::min_value            0                       # Number of insts issued each cycle
system.switch_cpus0.iq.issued_per_cycle::max_value            8                       # Number of insts issued each cycle
system.switch_cpus0.iq.issued_per_cycle::total      8440845                       # Number of insts issued each cycle
system.switch_cpus0.iq.fu_full::No_OpClass            0      0.00%      0.00% # attempts to use FU when none available
system.switch_cpus0.iq.fu_full::IntAlu         108952     76.33%     76.33% # attempts to use FU when none available
system.switch_cpus0.iq.fu_full::IntMult             3      0.00%     76.33% # attempts to use FU when none available
system.switch_cpus0.iq.fu_full::IntDiv              0      0.00%     76.33% # attempts to use FU when none available
system.switch_cpus0.iq.fu_full::FloatAdd            0      0.00%     76.33% # attempts to use FU when none available
system.switch_cpus0.iq.fu_full::FloatCmp            0      0.00%     76.33% # attempts to use FU when none available
system.switch_cpus0.iq.fu_full::FloatCvt            0      0.00%     76.33% # attempts to use FU when none available
system.switch_cpus0.iq.fu_full::FloatMult            0      0.00%     76.33% # attempts to use FU when none available
system.switch_cpus0.iq.fu_full::FloatDiv            0      0.00%     76.33% # attempts to use FU when none available
system.switch_cpus0.iq.fu_full::FloatSqrt            0      0.00%     76.33% # attempts to use FU when none available
system.switch_cpus0.iq.fu_full::SimdAdd             0      0.00%     76.33% # attempts to use FU when none available
system.switch_cpus0.iq.fu_full::SimdAddAcc            0      0.00%     76.33% # attempts to use FU when none available
system.switch_cpus0.iq.fu_full::SimdAlu             0      0.00%     76.33% # attempts to use FU when none available
system.switch_cpus0.iq.fu_full::SimdCmp             0      0.00%     76.33% # attempts to use FU when none available
system.switch_cpus0.iq.fu_full::SimdCvt             0      0.00%     76.33% # attempts to use FU when none available
system.switch_cpus0.iq.fu_full::SimdMisc            0      0.00%     76.33% # attempts to use FU when none available
system.switch_cpus0.iq.fu_full::SimdMult            0      0.00%     76.33% # attempts to use FU when none available
system.switch_cpus0.iq.fu_full::SimdMultAcc            0      0.00%     76.33% # attempts to use FU when none available
system.switch_cpus0.iq.fu_full::SimdShift            0      0.00%     76.33% # attempts to use FU when none available
system.switch_cpus0.iq.fu_full::SimdShiftAcc            0      0.00%     76.33% # attempts to use FU when none available
system.switch_cpus0.iq.fu_full::SimdSqrt            0      0.00%     76.33% # attempts to use FU when none available
system.switch_cpus0.iq.fu_full::SimdFloatAdd            0      0.00%     76.33% # attempts to use FU when none available
system.switch_cpus0.iq.fu_full::SimdFloatAlu            0      0.00%     76.33% # attempts to use FU when none available
system.switch_cpus0.iq.fu_full::SimdFloatCmp            0      0.00%     76.33% # attempts to use FU when none available
system.switch_cpus0.iq.fu_full::SimdFloatCvt            0      0.00%     76.33% # attempts to use FU when none available
system.switch_cpus0.iq.fu_full::SimdFloatDiv            0      0.00%     76.33% # attempts to use FU when none available
system.switch_cpus0.iq.fu_full::SimdFloatMisc            0      0.00%     76.33% # attempts to use FU when none available
system.switch_cpus0.iq.fu_full::SimdFloatMult            0      0.00%     76.33% # attempts to use FU when none available
system.switch_cpus0.iq.fu_full::SimdFloatMultAcc            0      0.00%     76.33% # attempts to use FU when none available
system.switch_cpus0.iq.fu_full::SimdFloatSqrt            0      0.00%     76.33% # attempts to use FU when none available
system.switch_cpus0.iq.fu_full::MemRead         15636     10.95%     87.28% # attempts to use FU when none available
system.switch_cpus0.iq.fu_full::MemWrite        18151     12.72%    100.00% # attempts to use FU when none available
system.switch_cpus0.iq.fu_full::IprAccess            0      0.00%    100.00% # attempts to use FU when none available
system.switch_cpus0.iq.fu_full::InstPrefetch            0      0.00%    100.00% # attempts to use FU when none available
system.switch_cpus0.iq.FU_type_0::No_OpClass            0      0.00%      0.00% # Type of FU issued
system.switch_cpus0.iq.FU_type_0::IntAlu     12495107     83.37%     83.37% # Type of FU issued
system.switch_cpus0.iq.FU_type_0::IntMult       212246      1.42%     84.79% # Type of FU issued
system.switch_cpus0.iq.FU_type_0::IntDiv            0      0.00%     84.79% # Type of FU issued
system.switch_cpus0.iq.FU_type_0::FloatAdd            0      0.00%     84.79% # Type of FU issued
system.switch_cpus0.iq.FU_type_0::FloatCmp            0      0.00%     84.79% # Type of FU issued
system.switch_cpus0.iq.FU_type_0::FloatCvt            0      0.00%     84.79% # Type of FU issued
system.switch_cpus0.iq.FU_type_0::FloatMult            0      0.00%     84.79% # Type of FU issued
system.switch_cpus0.iq.FU_type_0::FloatDiv            0      0.00%     84.79% # Type of FU issued
system.switch_cpus0.iq.FU_type_0::FloatSqrt            0      0.00%     84.79% # Type of FU issued
system.switch_cpus0.iq.FU_type_0::SimdAdd            0      0.00%     84.79% # Type of FU issued
system.switch_cpus0.iq.FU_type_0::SimdAddAcc            0      0.00%     84.79% # Type of FU issued
system.switch_cpus0.iq.FU_type_0::SimdAlu            0      0.00%     84.79% # Type of FU issued
system.switch_cpus0.iq.FU_type_0::SimdCmp            0      0.00%     84.79% # Type of FU issued
system.switch_cpus0.iq.FU_type_0::SimdCvt            0      0.00%     84.79% # Type of FU issued
system.switch_cpus0.iq.FU_type_0::SimdMisc            0      0.00%     84.79% # Type of FU issued
system.switch_cpus0.iq.FU_type_0::SimdMult            0      0.00%     84.79% # Type of FU issued
system.switch_cpus0.iq.FU_type_0::SimdMultAcc            0      0.00%     84.79% # Type of FU issued
system.switch_cpus0.iq.FU_type_0::SimdShift            0      0.00%     84.79% # Type of FU issued
system.switch_cpus0.iq.FU_type_0::SimdShiftAcc            0      0.00%     84.79% # Type of FU issued
system.switch_cpus0.iq.FU_type_0::SimdSqrt            0      0.00%     84.79% # Type of FU issued
system.switch_cpus0.iq.FU_type_0::SimdFloatAdd            0      0.00%     84.79% # Type of FU issued
system.switch_cpus0.iq.FU_type_0::SimdFloatAlu            0      0.00%     84.79% # Type of FU issued
system.switch_cpus0.iq.FU_type_0::SimdFloatCmp            0      0.00%     84.79% # Type of FU issued
system.switch_cpus0.iq.FU_type_0::SimdFloatCvt            0      0.00%     84.79% # Type of FU issued
system.switch_cpus0.iq.FU_type_0::SimdFloatDiv            0      0.00%     84.79% # Type of FU issued
system.switch_cpus0.iq.FU_type_0::SimdFloatMisc         1650      0.01%     84.80% # Type of FU issued
system.switch_cpus0.iq.FU_type_0::SimdFloatMult            0      0.00%     84.80% # Type of FU issued
system.switch_cpus0.iq.FU_type_0::SimdFloatMultAcc            0      0.00%     84.80% # Type of FU issued
system.switch_cpus0.iq.FU_type_0::SimdFloatSqrt            0      0.00%     84.80% # Type of FU issued
system.switch_cpus0.iq.FU_type_0::MemRead      1491737      9.95%     94.75% # Type of FU issued
system.switch_cpus0.iq.FU_type_0::MemWrite       786560      5.25%    100.00% # Type of FU issued
system.switch_cpus0.iq.FU_type_0::IprAccess            0      0.00%    100.00% # Type of FU issued
system.switch_cpus0.iq.FU_type_0::InstPrefetch            0      0.00%    100.00% # Type of FU issued
system.switch_cpus0.iq.FU_type_0::total      14987300                       # Type of FU issued
system.switch_cpus0.iq.rate                  1.738622                       # Inst issue rate
system.switch_cpus0.iq.fu_busy_cnt             142742                       # FU busy when requested
system.switch_cpus0.iq.fu_busy_rate          0.009524                       # FU busy rate (busy events/executed inst)
system.switch_cpus0.iq.int_inst_queue_reads     38587684                       # Number of integer instruction queue reads
system.switch_cpus0.iq.int_inst_queue_writes     24918437                       # Number of integer instruction queue writes
system.switch_cpus0.iq.int_inst_queue_wakeup_accesses     14552178                       # Number of integer instruction queue wakeup accesses
system.switch_cpus0.iq.fp_inst_queue_reads            0                       # Number of floating instruction queue reads
system.switch_cpus0.iq.fp_inst_queue_writes            0                       # Number of floating instruction queue writes
system.switch_cpus0.iq.fp_inst_queue_wakeup_accesses            0                       # Number of floating instruction queue wakeup accesses
system.switch_cpus0.iq.int_alu_accesses      15130042                       # Number of integer alu accesses
system.switch_cpus0.iq.fp_alu_accesses              0                       # Number of floating point alu accesses
system.switch_cpus0.iew.lsq.thread0.forwLoads        29522                       # Number of loads that had data forwarded from stores
system.switch_cpus0.iew.lsq.thread0.invAddrLoads            0                       # Number of loads ignored due to an invalid address
system.switch_cpus0.iew.lsq.thread0.squashedLoads       723802                       # Number of loads squashed
system.switch_cpus0.iew.lsq.thread0.ignoredResponses          201                       # Number of memory responses ignored because the instruction is squashed
system.switch_cpus0.iew.lsq.thread0.memOrderViolation          157                       # Number of memory ordering violations
system.switch_cpus0.iew.lsq.thread0.squashedStores       239038                       # Number of stores squashed
system.switch_cpus0.iew.lsq.thread0.invAddrSwpfs            0                       # Number of software prefetches ignored due to an invalid address
system.switch_cpus0.iew.lsq.thread0.blockedLoads            0                       # Number of blocked loads due to partial load-store forwarding
system.switch_cpus0.iew.lsq.thread0.rescheduledLoads            0                       # Number of loads that were rescheduled
system.switch_cpus0.iew.lsq.thread0.cacheBlocked            0                       # Number of times an access to memory failed due to the cache being blocked
system.switch_cpus0.iew.iewIdleCycles               0                       # Number of cycles IEW is idle
system.switch_cpus0.iew.iewSquashCycles        905855                       # Number of cycles IEW is squashing
system.switch_cpus0.iew.iewBlockCycles          56964                       # Number of cycles IEW is blocking
system.switch_cpus0.iew.iewUnblockCycles         9119                       # Number of cycles IEW is unblocking
system.switch_cpus0.iew.iewDispatchedInsts     18622793                       # Number of instructions dispatched to IQ
system.switch_cpus0.iew.iewDispSquashedInsts        65051                       # Number of squashed instructions skipped by dispatch
system.switch_cpus0.iew.iewDispLoadInsts      1849142                       # Number of dispatched load instructions
system.switch_cpus0.iew.iewDispStoreInsts       944255                       # Number of dispatched store instructions
system.switch_cpus0.iew.iewDispNonSpecInsts         2392                       # Number of dispatched non-speculative instructions
system.switch_cpus0.iew.iewIQFullEvents          6631                       # Number of times the IQ has become full, causing a stall
system.switch_cpus0.iew.iewLSQFullEvents           21                       # Number of times the LSQ has become full, causing a stall
system.switch_cpus0.iew.memOrderViolationEvents          157                       # Number of memory order violations
system.switch_cpus0.iew.predictedTakenIncorrect       125676                       # Number of branches that were predicted taken incorrectly
system.switch_cpus0.iew.predictedNotTakenIncorrect       123872                       # Number of branches that were predicted not taken incorrectly
system.switch_cpus0.iew.branchMispredicts       249548                       # Number of branch mispredicts detected at execute
system.switch_cpus0.iew.iewExecutedInsts     14702557                       # Number of executed instructions
system.switch_cpus0.iew.iewExecLoadInsts      1392464                       # Number of load instructions executed
system.switch_cpus0.iew.iewExecSquashedInsts       284741                       # Number of squashed instructions skipped in execute
system.switch_cpus0.iew.exec_swp                    0                       # number of swp insts executed
system.switch_cpus0.iew.exec_nop                    5                       # number of nop insts executed
system.switch_cpus0.iew.exec_refs             2146754                       # number of memory reference insts executed
system.switch_cpus0.iew.exec_branches         2082658                       # Number of branches executed
system.switch_cpus0.iew.exec_stores            754290                       # Number of stores executed
system.switch_cpus0.iew.exec_rate            1.705590                       # Inst execution rate
system.switch_cpus0.iew.wb_sent              14563662                       # cumulative count of insts sent to commit
system.switch_cpus0.iew.wb_count             14552178                       # cumulative count of insts written-back
system.switch_cpus0.iew.wb_producers          9526887                       # num instructions producing a value
system.switch_cpus0.iew.wb_consumers         26728703                       # num instructions consuming a value
system.switch_cpus0.iew.wb_penalized                0                       # number of instrctions required to write to 'other' IQ
system.switch_cpus0.iew.wb_rate              1.688145                       # insts written-back per cycle
system.switch_cpus0.iew.wb_fanout            0.356429                       # average fanout of values written-back
system.switch_cpus0.iew.wb_penalized_rate            0                       # fraction of instructions written-back that wrote to 'other' IQ
system.switch_cpus0.commit.commitCommittedInsts     10000000                       # The number of committed instructions
system.switch_cpus0.commit.commitCommittedOps     12281692                       # The number of committed instructions
system.switch_cpus0.commit.commitSquashedInsts      6341133                       # The number of squashed insts skipped by commit
system.switch_cpus0.commit.commitNonSpecStalls         3369                       # The number of times commit has been forced to stall to communicate backwards
system.switch_cpus0.commit.branchMispredicts       216638                       # The number of times a branch was mispredicted
system.switch_cpus0.commit.committed_per_cycle::samples      7534990                       # Number of insts commited each cycle
system.switch_cpus0.commit.committed_per_cycle::mean     1.629955                       # Number of insts commited each cycle
system.switch_cpus0.commit.committed_per_cycle::stdev     2.163028                       # Number of insts commited each cycle
system.switch_cpus0.commit.committed_per_cycle::underflows            0      0.00%      0.00% # Number of insts commited each cycle
system.switch_cpus0.commit.committed_per_cycle::0      2977329     39.51%     39.51% # Number of insts commited each cycle
system.switch_cpus0.commit.committed_per_cycle::1      2050620     27.21%     66.73% # Number of insts commited each cycle
system.switch_cpus0.commit.committed_per_cycle::2       841178     11.16%     77.89% # Number of insts commited each cycle
system.switch_cpus0.commit.committed_per_cycle::3       420294      5.58%     83.47% # Number of insts commited each cycle
system.switch_cpus0.commit.committed_per_cycle::4       428240      5.68%     89.15% # Number of insts commited each cycle
system.switch_cpus0.commit.committed_per_cycle::5       167089      2.22%     91.37% # Number of insts commited each cycle
system.switch_cpus0.commit.committed_per_cycle::6       183721      2.44%     93.81% # Number of insts commited each cycle
system.switch_cpus0.commit.committed_per_cycle::7        95049      1.26%     95.07% # Number of insts commited each cycle
system.switch_cpus0.commit.committed_per_cycle::8       371470      4.93%    100.00% # Number of insts commited each cycle
system.switch_cpus0.commit.committed_per_cycle::overflows            0      0.00%    100.00% # Number of insts commited each cycle
system.switch_cpus0.commit.committed_per_cycle::min_value            0                       # Number of insts commited each cycle
system.switch_cpus0.commit.committed_per_cycle::max_value            8                       # Number of insts commited each cycle
system.switch_cpus0.commit.committed_per_cycle::total      7534990                       # Number of insts commited each cycle
system.switch_cpus0.commit.committedInsts     10000000                       # Number of instructions committed
system.switch_cpus0.commit.committedOps      12281692                       # Number of ops (including micro ops) committed
system.switch_cpus0.commit.swp_count                0                       # Number of s/w prefetches committed
system.switch_cpus0.commit.refs               1830556                       # Number of memory references committed
system.switch_cpus0.commit.loads              1125340                       # Number of loads committed
system.switch_cpus0.commit.membars               1676                       # Number of memory barriers committed
system.switch_cpus0.commit.branches           1765816                       # Number of branches committed
system.switch_cpus0.commit.fp_insts                 0                       # Number of committed floating point instructions.
system.switch_cpus0.commit.int_insts         11064717                       # Number of committed integer instructions.
system.switch_cpus0.commit.function_calls       249907                       # Number of function calls committed.
system.switch_cpus0.commit.bw_lim_events       371470                       # number cycles where commit BW limit reached
system.switch_cpus0.commit.bw_limited               0                       # number of insts not committed due to BW limits
system.switch_cpus0.rob.rob_reads            25786176                       # The number of ROB reads
system.switch_cpus0.rob.rob_writes           38152322                       # The number of ROB writes
system.switch_cpus0.timesIdled                   4999                       # Number of times that the entire CPU went into an idle state and unscheduled itself
system.switch_cpus0.idleCycles                 179372                       # Total number of cycles that the CPU has spent unscheduled due to idling
system.switch_cpus0.committedInsts           10000000                       # Number of Instructions Simulated
system.switch_cpus0.committedOps             12281692                       # Number of Ops (including micro ops) Simulated
system.switch_cpus0.committedInsts_total     10000000                       # Number of Instructions Simulated
system.switch_cpus0.cpi                      0.862022                       # CPI: Cycles Per Instruction
system.switch_cpus0.cpi_total                0.862022                       # CPI: Total CPI of All Threads
system.switch_cpus0.ipc                      1.160064                       # IPC: Instructions Per Cycle
system.switch_cpus0.ipc_total                1.160064                       # IPC: Total IPC of All Threads
system.switch_cpus0.int_regfile_reads        66092713                       # number of integer regfile reads
system.switch_cpus0.int_regfile_writes       20115586                       # number of integer regfile writes
system.switch_cpus0.misc_regfile_reads       19078394                       # number of misc regfile reads
system.switch_cpus0.misc_regfile_writes          3360                       # number of misc regfile writes
system.switch_cpus1.dtb.inst_hits                   0                       # ITB inst hits
system.switch_cpus1.dtb.inst_misses                 0                       # ITB inst misses
system.switch_cpus1.dtb.read_hits                   0                       # DTB read hits
system.switch_cpus1.dtb.read_misses                 0                       # DTB read misses
system.switch_cpus1.dtb.write_hits                  0                       # DTB write hits
system.switch_cpus1.dtb.write_misses                0                       # DTB write misses
system.switch_cpus1.dtb.flush_tlb                   0                       # Number of times complete TLB was flushed
system.switch_cpus1.dtb.flush_tlb_mva               0                       # Number of times TLB was flushed by MVA
system.switch_cpus1.dtb.flush_tlb_mva_asid            0                       # Number of times TLB was flushed by MVA & ASID
system.switch_cpus1.dtb.flush_tlb_asid              0                       # Number of times TLB was flushed by ASID
system.switch_cpus1.dtb.flush_entries               0                       # Number of entries that have been flushed from TLB
system.switch_cpus1.dtb.align_faults                0                       # Number of TLB faults due to alignment restrictions
system.switch_cpus1.dtb.prefetch_faults             0                       # Number of TLB faults due to prefetch
system.switch_cpus1.dtb.domain_faults               0                       # Number of TLB faults due to domain restrictions
system.switch_cpus1.dtb.perms_faults                0                       # Number of TLB faults due to permissions restrictions
system.switch_cpus1.dtb.read_accesses               0                       # DTB read accesses
system.switch_cpus1.dtb.write_accesses              0                       # DTB write accesses
system.switch_cpus1.dtb.inst_accesses               0                       # ITB inst accesses
system.switch_cpus1.dtb.hits                        0                       # DTB hits
system.switch_cpus1.dtb.misses                      0                       # DTB misses
system.switch_cpus1.dtb.accesses                    0                       # DTB accesses
system.switch_cpus1.itb.inst_hits                   0                       # ITB inst hits
system.switch_cpus1.itb.inst_misses                 0                       # ITB inst misses
system.switch_cpus1.itb.read_hits                   0                       # DTB read hits
system.switch_cpus1.itb.read_misses                 0                       # DTB read misses
system.switch_cpus1.itb.write_hits                  0                       # DTB write hits
system.switch_cpus1.itb.write_misses                0                       # DTB write misses
system.switch_cpus1.itb.flush_tlb                   0                       # Number of times complete TLB was flushed
system.switch_cpus1.itb.flush_tlb_mva               0                       # Number of times TLB was flushed by MVA
system.switch_cpus1.itb.flush_tlb_mva_asid            0                       # Number of times TLB was flushed by MVA & ASID
system.switch_cpus1.itb.flush_tlb_asid              0                       # Number of times TLB was flushed by ASID
system.switch_cpus1.itb.flush_entries               0                       # Number of entries that have been flushed from TLB
system.switch_cpus1.itb.align_faults                0                       # Number of TLB faults due to alignment restrictions
system.switch_cpus1.itb.prefetch_faults             0                       # Number of TLB faults due to prefetch
system.switch_cpus1.itb.domain_faults               0                       # Number of TLB faults due to domain restrictions
system.switch_cpus1.itb.perms_faults                0                       # Number of TLB faults due to permissions restrictions
system.switch_cpus1.itb.read_accesses               0                       # DTB read accesses
system.switch_cpus1.itb.write_accesses              0                       # DTB write accesses
system.switch_cpus1.itb.inst_accesses               0                       # ITB inst accesses
system.switch_cpus1.itb.hits                        0                       # DTB hits
system.switch_cpus1.itb.misses                      0                       # DTB misses
system.switch_cpus1.itb.accesses                    0                       # DTB accesses
system.cpu1.workload.num_syscalls                  13                       # Number of system calls
system.switch_cpus1.numCycles                 8620217                       # number of cpu cycles simulated
system.switch_cpus1.numWorkItemsStarted             0                       # number of work items this cpu started
system.switch_cpus1.numWorkItemsCompleted            0                       # number of work items this cpu completed
system.switch_cpus1.BPredUnit.lookups         3247387                       # Number of BP lookups
system.switch_cpus1.BPredUnit.condPredicted      2644945                       # Number of conditional branches predicted
system.switch_cpus1.BPredUnit.condIncorrect       215417                       # Number of conditional branches incorrect
system.switch_cpus1.BPredUnit.BTBLookups      1340670                       # Number of BTB lookups
system.switch_cpus1.BPredUnit.BTBHits         1262334                       # Number of BTB hits
system.switch_cpus1.BPredUnit.BTBCorrect            0                       # Number of correct BTB predictions (this stat may not work properly.
system.switch_cpus1.BPredUnit.usedRAS          346550                       # Number of times the RAS was used to get a target.
system.switch_cpus1.BPredUnit.RASInCorrect         9463                       # Number of incorrect RAS predictions.
system.switch_cpus1.fetch.icacheStallCycles      3342564                       # Number of cycles fetch is stalled on an Icache miss
system.switch_cpus1.fetch.Insts              17732128                       # Number of instructions fetch has processed
system.switch_cpus1.fetch.Branches            3247387                       # Number of branches that fetch encountered
system.switch_cpus1.fetch.predictedBranches      1608884                       # Number of branches that fetch has predicted taken
system.switch_cpus1.fetch.Cycles              3715371                       # Number of cycles fetch has run and was not squashing or blocked
system.switch_cpus1.fetch.SquashCycles        1159658                       # Number of cycles fetch has spent squashing
system.switch_cpus1.fetch.BlockedCycles        497697                       # Number of cycles fetch has spent blocked
system.switch_cpus1.fetch.MiscStallCycles            2                       # Number of cycles fetch has spent waiting on interrupts, or bad addresses, or out of MSHRs
system.switch_cpus1.fetch.PendingTrapStallCycles           47                       # Number of stall cycles due to pending traps
system.switch_cpus1.fetch.CacheLines          1640968                       # Number of cache lines fetched
system.switch_cpus1.fetch.IcacheSquashes        93973                       # Number of outstanding Icache misses that were squashed
system.switch_cpus1.fetch.rateDist::samples      8496762                       # Number of instructions fetched each cycle (Total)
system.switch_cpus1.fetch.rateDist::mean     2.585144                       # Number of instructions fetched each cycle (Total)
system.switch_cpus1.fetch.rateDist::stdev     3.372880                       # Number of instructions fetched each cycle (Total)
system.switch_cpus1.fetch.rateDist::underflows            0      0.00%      0.00% # Number of instructions fetched each cycle (Total)
system.switch_cpus1.fetch.rateDist::0         4781391     56.27%     56.27% # Number of instructions fetched each cycle (Total)
system.switch_cpus1.fetch.rateDist::1          258885      3.05%     59.32% # Number of instructions fetched each cycle (Total)
system.switch_cpus1.fetch.rateDist::2          269991      3.18%     62.50% # Number of instructions fetched each cycle (Total)
system.switch_cpus1.fetch.rateDist::3          425997      5.01%     67.51% # Number of instructions fetched each cycle (Total)
system.switch_cpus1.fetch.rateDist::4          202476      2.38%     69.89% # Number of instructions fetched each cycle (Total)
system.switch_cpus1.fetch.rateDist::5          286482      3.37%     73.27% # Number of instructions fetched each cycle (Total)
system.switch_cpus1.fetch.rateDist::6          192239      2.26%     75.53% # Number of instructions fetched each cycle (Total)
system.switch_cpus1.fetch.rateDist::7          141659      1.67%     77.20% # Number of instructions fetched each cycle (Total)
system.switch_cpus1.fetch.rateDist::8         1937642     22.80%    100.00% # Number of instructions fetched each cycle (Total)
system.switch_cpus1.fetch.rateDist::overflows            0      0.00%    100.00% # Number of instructions fetched each cycle (Total)
system.switch_cpus1.fetch.rateDist::min_value            0                       # Number of instructions fetched each cycle (Total)
system.switch_cpus1.fetch.rateDist::max_value            8                       # Number of instructions fetched each cycle (Total)
system.switch_cpus1.fetch.rateDist::total      8496762                       # Number of instructions fetched each cycle (Total)
system.switch_cpus1.fetch.branchRate         0.376718                       # Number of branch fetches per cycle
system.switch_cpus1.fetch.rate               2.057040                       # Number of inst fetches per cycle
system.switch_cpus1.decode.IdleCycles         3520638                       # Number of cycles decode is idle
system.switch_cpus1.decode.BlockedCycles       452043                       # Number of cycles decode is blocked
system.switch_cpus1.decode.RunCycles          3554505                       # Number of cycles decode is running
system.switch_cpus1.decode.UnblockCycles        29670                       # Number of cycles decode is unblocking
system.switch_cpus1.decode.SquashCycles        939900                       # Number of cycles decode is squashing
system.switch_cpus1.decode.BranchResolved       551249                       # Number of times decode resolved a branch
system.switch_cpus1.decode.BranchMispred         1210                       # Number of times decode detected a branch misprediction
system.switch_cpus1.decode.DecodedInsts      21180702                       # Number of instructions handled by decode
system.switch_cpus1.decode.SquashedInsts         4461                       # Number of squashed instructions handled by decode
system.switch_cpus1.rename.SquashCycles        939900                       # Number of cycles rename is squashing
system.switch_cpus1.rename.IdleCycles         3698358                       # Number of cycles rename is idle
system.switch_cpus1.rename.BlockCycles         103962                       # Number of cycles rename is blocking
system.switch_cpus1.rename.serializeStallCycles       119720                       # count of cycles rename stalled for serializing inst
system.switch_cpus1.rename.RunCycles          3404612                       # Number of cycles rename is running
system.switch_cpus1.rename.UnblockCycles       230204                       # Number of cycles rename is unblocking
system.switch_cpus1.rename.RenamedInsts      20417566                       # Number of instructions processed by rename
system.switch_cpus1.rename.ROBFullEvents           41                       # Number of times rename has blocked due to ROB full
system.switch_cpus1.rename.IQFullEvents        132696                       # Number of times rename has blocked due to IQ full
system.switch_cpus1.rename.LSQFullEvents        68118                       # Number of times rename has blocked due to LSQ full
system.switch_cpus1.rename.RenamedOperands     28580998                       # Number of destination operands rename has renamed
system.switch_cpus1.rename.RenameLookups     95189248                       # Number of register rename lookups that rename has made
system.switch_cpus1.rename.int_rename_lookups     95189248                       # Number of integer rename lookups
system.switch_cpus1.rename.CommittedMaps     17438315                       # Number of HB maps that are committed
system.switch_cpus1.rename.UndoneMaps        11142636                       # Number of HB maps that are undone due to squashing
system.switch_cpus1.rename.serializingInsts         3507                       # count of serializing insts renamed
system.switch_cpus1.rename.tempSerializingInsts         1790                       # count of temporary serializing insts renamed
system.switch_cpus1.rename.skidInsts           605009                       # count of insts added to the skid buffer
system.switch_cpus1.memDep0.insertedLoads      1899600                       # Number of loads inserted to the mem dependence unit.
system.switch_cpus1.memDep0.insertedStores       982737                       # Number of stores inserted to the mem dependence unit.
system.switch_cpus1.memDep0.conflictingLoads        10489                       # Number of conflicting loads.
system.switch_cpus1.memDep0.conflictingStores       293768                       # Number of conflicting stores.
system.switch_cpus1.iq.iqInstsAdded          19135425                       # Number of instructions added to the IQ (excludes non-spec)
system.switch_cpus1.iq.iqNonSpecInstsAdded         3527                       # Number of non-speculative instructions added to the IQ
system.switch_cpus1.iq.iqInstsIssued         15203941                       # Number of instructions issued
system.switch_cpus1.iq.iqSquashedInstsIssued        27879                       # Number of squashed instructions issued
system.switch_cpus1.iq.iqSquashedInstsExamined      6594608                       # Number of squashed instructions iterated over during squash; mainly for profiling
system.switch_cpus1.iq.iqSquashedOperandsExamined     20337382                       # Number of squashed operands that are examined and possibly removed from graph
system.switch_cpus1.iq.iqSquashedNonSpecRemoved           30                       # Number of squashed non-spec instructions that were removed
system.switch_cpus1.iq.issued_per_cycle::samples      8496762                       # Number of insts issued each cycle
system.switch_cpus1.iq.issued_per_cycle::mean     1.789381                       # Number of insts issued each cycle
system.switch_cpus1.iq.issued_per_cycle::stdev     1.933589                       # Number of insts issued each cycle
system.switch_cpus1.iq.issued_per_cycle::underflows            0      0.00%      0.00% # Number of insts issued each cycle
system.switch_cpus1.iq.issued_per_cycle::0      2944995     34.66%     34.66% # Number of insts issued each cycle
system.switch_cpus1.iq.issued_per_cycle::1      1851577     21.79%     56.45% # Number of insts issued each cycle
system.switch_cpus1.iq.issued_per_cycle::2      1189164     14.00%     70.45% # Number of insts issued each cycle
system.switch_cpus1.iq.issued_per_cycle::3       805865      9.48%     79.93% # Number of insts issued each cycle
system.switch_cpus1.iq.issued_per_cycle::4       751231      8.84%     88.77% # Number of insts issued each cycle
system.switch_cpus1.iq.issued_per_cycle::5       414498      4.88%     93.65% # Number of insts issued each cycle
system.switch_cpus1.iq.issued_per_cycle::6       376337      4.43%     98.08% # Number of insts issued each cycle
system.switch_cpus1.iq.issued_per_cycle::7        83755      0.99%     99.07% # Number of insts issued each cycle
system.switch_cpus1.iq.issued_per_cycle::8        79340      0.93%    100.00% # Number of insts issued each cycle
system.switch_cpus1.iq.issued_per_cycle::overflows            0      0.00%    100.00% # Number of insts issued each cycle
system.switch_cpus1.iq.issued_per_cycle::min_value            0                       # Number of insts issued each cycle
system.switch_cpus1.iq.issued_per_cycle::max_value            8                       # Number of insts issued each cycle
system.switch_cpus1.iq.issued_per_cycle::total      8496762                       # Number of insts issued each cycle
system.switch_cpus1.iq.fu_full::No_OpClass            0      0.00%      0.00% # attempts to use FU when none available
system.switch_cpus1.iq.fu_full::IntAlu         114685     77.92%     77.92% # attempts to use FU when none available
system.switch_cpus1.iq.fu_full::IntMult             0      0.00%     77.92% # attempts to use FU when none available
system.switch_cpus1.iq.fu_full::IntDiv              0      0.00%     77.92% # attempts to use FU when none available
system.switch_cpus1.iq.fu_full::FloatAdd            0      0.00%     77.92% # attempts to use FU when none available
system.switch_cpus1.iq.fu_full::FloatCmp            0      0.00%     77.92% # attempts to use FU when none available
system.switch_cpus1.iq.fu_full::FloatCvt            0      0.00%     77.92% # attempts to use FU when none available
system.switch_cpus1.iq.fu_full::FloatMult            0      0.00%     77.92% # attempts to use FU when none available
system.switch_cpus1.iq.fu_full::FloatDiv            0      0.00%     77.92% # attempts to use FU when none available
system.switch_cpus1.iq.fu_full::FloatSqrt            0      0.00%     77.92% # attempts to use FU when none available
system.switch_cpus1.iq.fu_full::SimdAdd             0      0.00%     77.92% # attempts to use FU when none available
system.switch_cpus1.iq.fu_full::SimdAddAcc            0      0.00%     77.92% # attempts to use FU when none available
system.switch_cpus1.iq.fu_full::SimdAlu             0      0.00%     77.92% # attempts to use FU when none available
system.switch_cpus1.iq.fu_full::SimdCmp             0      0.00%     77.92% # attempts to use FU when none available
system.switch_cpus1.iq.fu_full::SimdCvt             0      0.00%     77.92% # attempts to use FU when none available
system.switch_cpus1.iq.fu_full::SimdMisc            0      0.00%     77.92% # attempts to use FU when none available
system.switch_cpus1.iq.fu_full::SimdMult            0      0.00%     77.92% # attempts to use FU when none available
system.switch_cpus1.iq.fu_full::SimdMultAcc            0      0.00%     77.92% # attempts to use FU when none available
system.switch_cpus1.iq.fu_full::SimdShift            0      0.00%     77.92% # attempts to use FU when none available
system.switch_cpus1.iq.fu_full::SimdShiftAcc            0      0.00%     77.92% # attempts to use FU when none available
system.switch_cpus1.iq.fu_full::SimdSqrt            0      0.00%     77.92% # attempts to use FU when none available
system.switch_cpus1.iq.fu_full::SimdFloatAdd            0      0.00%     77.92% # attempts to use FU when none available
system.switch_cpus1.iq.fu_full::SimdFloatAlu            0      0.00%     77.92% # attempts to use FU when none available
system.switch_cpus1.iq.fu_full::SimdFloatCmp            0      0.00%     77.92% # attempts to use FU when none available
system.switch_cpus1.iq.fu_full::SimdFloatCvt            0      0.00%     77.92% # attempts to use FU when none available
system.switch_cpus1.iq.fu_full::SimdFloatDiv            0      0.00%     77.92% # attempts to use FU when none available
system.switch_cpus1.iq.fu_full::SimdFloatMisc            0      0.00%     77.92% # attempts to use FU when none available
system.switch_cpus1.iq.fu_full::SimdFloatMult            0      0.00%     77.92% # attempts to use FU when none available
system.switch_cpus1.iq.fu_full::SimdFloatMultAcc            0      0.00%     77.92% # attempts to use FU when none available
system.switch_cpus1.iq.fu_full::SimdFloatSqrt            0      0.00%     77.92% # attempts to use FU when none available
system.switch_cpus1.iq.fu_full::MemRead         16226     11.02%     88.94% # attempts to use FU when none available
system.switch_cpus1.iq.fu_full::MemWrite        16271     11.06%    100.00% # attempts to use FU when none available
system.switch_cpus1.iq.fu_full::IprAccess            0      0.00%    100.00% # attempts to use FU when none available
system.switch_cpus1.iq.fu_full::InstPrefetch            0      0.00%    100.00% # attempts to use FU when none available
system.switch_cpus1.iq.FU_type_0::No_OpClass            0      0.00%      0.00% # Type of FU issued
system.switch_cpus1.iq.FU_type_0::IntAlu     12685027     83.43%     83.43% # Type of FU issued
system.switch_cpus1.iq.FU_type_0::IntMult       202062      1.33%     84.76% # Type of FU issued
system.switch_cpus1.iq.FU_type_0::IntDiv            0      0.00%     84.76% # Type of FU issued
system.switch_cpus1.iq.FU_type_0::FloatAdd            0      0.00%     84.76% # Type of FU issued
system.switch_cpus1.iq.FU_type_0::FloatCmp            0      0.00%     84.76% # Type of FU issued
system.switch_cpus1.iq.FU_type_0::FloatCvt            0      0.00%     84.76% # Type of FU issued
system.switch_cpus1.iq.FU_type_0::FloatMult            0      0.00%     84.76% # Type of FU issued
system.switch_cpus1.iq.FU_type_0::FloatDiv            0      0.00%     84.76% # Type of FU issued
system.switch_cpus1.iq.FU_type_0::FloatSqrt            0      0.00%     84.76% # Type of FU issued
system.switch_cpus1.iq.FU_type_0::SimdAdd            0      0.00%     84.76% # Type of FU issued
system.switch_cpus1.iq.FU_type_0::SimdAddAcc            0      0.00%     84.76% # Type of FU issued
system.switch_cpus1.iq.FU_type_0::SimdAlu            0      0.00%     84.76% # Type of FU issued
system.switch_cpus1.iq.FU_type_0::SimdCmp            0      0.00%     84.76% # Type of FU issued
system.switch_cpus1.iq.FU_type_0::SimdCvt            0      0.00%     84.76% # Type of FU issued
system.switch_cpus1.iq.FU_type_0::SimdMisc            0      0.00%     84.76% # Type of FU issued
system.switch_cpus1.iq.FU_type_0::SimdMult            0      0.00%     84.76% # Type of FU issued
system.switch_cpus1.iq.FU_type_0::SimdMultAcc            0      0.00%     84.76% # Type of FU issued
system.switch_cpus1.iq.FU_type_0::SimdShift            0      0.00%     84.76% # Type of FU issued
system.switch_cpus1.iq.FU_type_0::SimdShiftAcc            0      0.00%     84.76% # Type of FU issued
system.switch_cpus1.iq.FU_type_0::SimdSqrt            0      0.00%     84.76% # Type of FU issued
system.switch_cpus1.iq.FU_type_0::SimdFloatAdd            0      0.00%     84.76% # Type of FU issued
system.switch_cpus1.iq.FU_type_0::SimdFloatAlu            0      0.00%     84.76% # Type of FU issued
system.switch_cpus1.iq.FU_type_0::SimdFloatCmp            0      0.00%     84.76% # Type of FU issued
system.switch_cpus1.iq.FU_type_0::SimdFloatCvt            0      0.00%     84.76% # Type of FU issued
system.switch_cpus1.iq.FU_type_0::SimdFloatDiv            0      0.00%     84.76% # Type of FU issued
system.switch_cpus1.iq.FU_type_0::SimdFloatMisc         1715      0.01%     84.77% # Type of FU issued
system.switch_cpus1.iq.FU_type_0::SimdFloatMult            0      0.00%     84.77% # Type of FU issued
system.switch_cpus1.iq.FU_type_0::SimdFloatMultAcc            0      0.00%     84.77% # Type of FU issued
system.switch_cpus1.iq.FU_type_0::SimdFloatSqrt            0      0.00%     84.77% # Type of FU issued
system.switch_cpus1.iq.FU_type_0::MemRead      1508251      9.92%     94.69% # Type of FU issued
system.switch_cpus1.iq.FU_type_0::MemWrite       806886      5.31%    100.00% # Type of FU issued
system.switch_cpus1.iq.FU_type_0::IprAccess            0      0.00%    100.00% # Type of FU issued
system.switch_cpus1.iq.FU_type_0::InstPrefetch            0      0.00%    100.00% # Type of FU issued
system.switch_cpus1.iq.FU_type_0::total      15203941                       # Type of FU issued
system.switch_cpus1.iq.rate                  1.763754                       # Inst issue rate
system.switch_cpus1.iq.fu_busy_cnt             147182                       # FU busy when requested
system.switch_cpus1.iq.fu_busy_rate          0.009681                       # FU busy rate (busy events/executed inst)
system.switch_cpus1.iq.int_inst_queue_reads     39079704                       # Number of integer instruction queue reads
system.switch_cpus1.iq.int_inst_queue_writes     25733684                       # Number of integer instruction queue writes
system.switch_cpus1.iq.int_inst_queue_wakeup_accesses     14766555                       # Number of integer instruction queue wakeup accesses
system.switch_cpus1.iq.fp_inst_queue_reads            0                       # Number of floating instruction queue reads
system.switch_cpus1.iq.fp_inst_queue_writes            0                       # Number of floating instruction queue writes
system.switch_cpus1.iq.fp_inst_queue_wakeup_accesses            0                       # Number of floating instruction queue wakeup accesses
system.switch_cpus1.iq.int_alu_accesses      15351123                       # Number of integer alu accesses
system.switch_cpus1.iq.fp_alu_accesses              0                       # Number of floating point alu accesses
system.switch_cpus1.iew.lsq.thread0.forwLoads        21660                       # Number of loads that had data forwarded from stores
system.switch_cpus1.iew.lsq.thread0.invAddrLoads            0                       # Number of loads ignored due to an invalid address
system.switch_cpus1.iew.lsq.thread0.squashedLoads       758503                       # Number of loads squashed
system.switch_cpus1.iew.lsq.thread0.ignoredResponses           67                       # Number of memory responses ignored because the instruction is squashed
system.switch_cpus1.iew.lsq.thread0.memOrderViolation          127                       # Number of memory ordering violations
system.switch_cpus1.iew.lsq.thread0.squashedStores       260455                       # Number of stores squashed
system.switch_cpus1.iew.lsq.thread0.invAddrSwpfs            0                       # Number of software prefetches ignored due to an invalid address
system.switch_cpus1.iew.lsq.thread0.blockedLoads            0                       # Number of blocked loads due to partial load-store forwarding
system.switch_cpus1.iew.lsq.thread0.rescheduledLoads            0                       # Number of loads that were rescheduled
system.switch_cpus1.iew.lsq.thread0.cacheBlocked            0                       # Number of times an access to memory failed due to the cache being blocked
system.switch_cpus1.iew.iewIdleCycles               0                       # Number of cycles IEW is idle
system.switch_cpus1.iew.iewSquashCycles        939900                       # Number of cycles IEW is squashing
system.switch_cpus1.iew.iewBlockCycles          62227                       # Number of cycles IEW is blocking
system.switch_cpus1.iew.iewUnblockCycles        12937                       # Number of cycles IEW is unblocking
system.switch_cpus1.iew.iewDispatchedInsts     19138958                       # Number of instructions dispatched to IQ
system.switch_cpus1.iew.iewDispSquashedInsts        47663                       # Number of squashed instructions skipped by dispatch
system.switch_cpus1.iew.iewDispLoadInsts      1899600                       # Number of dispatched load instructions
system.switch_cpus1.iew.iewDispStoreInsts       982737                       # Number of dispatched store instructions
system.switch_cpus1.iew.iewDispNonSpecInsts         1785                       # Number of dispatched non-speculative instructions
system.switch_cpus1.iew.iewIQFullEvents         10796                       # Number of times the IQ has become full, causing a stall
system.switch_cpus1.iew.iewLSQFullEvents           17                       # Number of times the LSQ has become full, causing a stall
system.switch_cpus1.iew.memOrderViolationEvents          127                       # Number of memory order violations
system.switch_cpus1.iew.predictedTakenIncorrect       129392                       # Number of branches that were predicted taken incorrectly
system.switch_cpus1.iew.predictedNotTakenIncorrect       121547                       # Number of branches that were predicted not taken incorrectly
system.switch_cpus1.iew.branchMispredicts       250939                       # Number of branch mispredicts detected at execute
system.switch_cpus1.iew.iewExecutedInsts     14926096                       # Number of executed instructions
system.switch_cpus1.iew.iewExecLoadInsts      1406963                       # Number of load instructions executed
system.switch_cpus1.iew.iewExecSquashedInsts       277844                       # Number of squashed instructions skipped in execute
system.switch_cpus1.iew.exec_swp                    0                       # number of swp insts executed
system.switch_cpus1.iew.exec_nop                    6                       # number of nop insts executed
system.switch_cpus1.iew.exec_refs             2183198                       # number of memory reference insts executed
system.switch_cpus1.iew.exec_branches         2121274                       # Number of branches executed
system.switch_cpus1.iew.exec_stores            776235                       # Number of stores executed
system.switch_cpus1.iew.exec_rate            1.731522                       # Inst execution rate
system.switch_cpus1.iew.wb_sent              14777763                       # cumulative count of insts sent to commit
system.switch_cpus1.iew.wb_count             14766555                       # cumulative count of insts written-back
system.switch_cpus1.iew.wb_producers          9691445                       # num instructions producing a value
system.switch_cpus1.iew.wb_consumers         27554947                       # num instructions consuming a value
system.switch_cpus1.iew.wb_penalized                0                       # number of instrctions required to write to 'other' IQ
system.switch_cpus1.iew.wb_rate              1.713014                       # insts written-back per cycle
system.switch_cpus1.iew.wb_fanout            0.351713                       # average fanout of values written-back
system.switch_cpus1.iew.wb_penalized_rate            0                       # fraction of instructions written-back that wrote to 'other' IQ
system.switch_cpus1.commit.commitCommittedInsts     10161571                       # The number of committed instructions
system.switch_cpus1.commit.commitCommittedOps     12511124                       # The number of committed instructions
system.switch_cpus1.commit.commitSquashedInsts      6627855                       # The number of squashed insts skipped by commit
system.switch_cpus1.commit.commitNonSpecStalls         3497                       # The number of times commit has been forced to stall to communicate backwards
[...]
system.cpu3.icache.ReadReq_avg_miss_latency::total 50058.616667                       # average ReadReq miss latency
system.cpu3.icache.demand_avg_miss_latency::switch_cpus3.inst 50058.616667                       # average overall miss latency
system.cpu3.icache.demand_avg_miss_latency::total 50058.616667                       # average overall miss latency
system.cpu3.icache.overall_avg_miss_latency::switch_cpus3.inst 50058.616667                       # average overall miss latency
system.cpu3.icache.overall_avg_miss_latency::total 50058.616667                       # average overall miss latency
system.cpu3.icache.blocked_cycles::no_mshrs            0                       # number of cycles access was blocked
system.cpu3.icache.blocked_cycles::no_targets            0                       # number of cycles access was blocked
system.cpu3.icache.blocked::no_mshrs                0                       # number of cycles access was blocked
system.cpu3.icache.blocked::no_targets              0                       # number of cycles access was blocked
system.cpu3.icache.avg_blocked_cycles::no_mshrs          nan                       # average number of cycles each access was blocked
system.cpu3.icache.avg_blocked_cycles::no_targets          nan                       # average number of cycles each access was blocked
system.cpu3.icache.fast_writes                      0                       # number of fast writes performed
system.cpu3.icache.cache_copies                     0                       # number of cache copies performed
system.cpu3.icache.ReadReq_mshr_hits::switch_cpus3.inst           14                       # number of ReadReq MSHR hits
system.cpu3.icache.ReadReq_mshr_hits::total           14                       # number of ReadReq MSHR hits
system.cpu3.icache.demand_mshr_hits::switch_cpus3.inst           14                       # number of demand (read+write) MSHR hits
system.cpu3.icache.demand_mshr_hits::total           14                       # number of demand (read+write) MSHR hits
system.cpu3.icache.overall_mshr_hits::switch_cpus3.inst           14                       # number of overall MSHR hits
system.cpu3.icache.overall_mshr_hits::total           14                       # number of overall MSHR hits
system.cpu3.icache.ReadReq_mshr_misses::switch_cpus3.inst           46                       # number of ReadReq MSHR misses
system.cpu3.icache.ReadReq_mshr_misses::total           46                       # number of ReadReq MSHR misses
system.cpu3.icache.demand_mshr_misses::switch_cpus3.inst           46                       # number of demand (read+write) MSHR misses
system.cpu3.icache.demand_mshr_misses::total           46                       # number of demand (read+write) MSHR misses
system.cpu3.icache.overall_mshr_misses::switch_cpus3.inst           46                       # number of overall MSHR misses
system.cpu3.icache.overall_mshr_misses::total           46                       # number of overall MSHR misses
system.cpu3.icache.ReadReq_mshr_miss_latency::switch_cpus3.inst      2273969                       # number of ReadReq MSHR miss cycles
system.cpu3.icache.ReadReq_mshr_miss_latency::total      2273969                       # number of ReadReq MSHR miss cycles
system.cpu3.icache.demand_mshr_miss_latency::switch_cpus3.inst      2273969                       # number of demand (read+write) MSHR miss cycles
system.cpu3.icache.demand_mshr_miss_latency::total      2273969                       # number of demand (read+write) MSHR miss cycles
system.cpu3.icache.overall_mshr_miss_latency::switch_cpus3.inst      2273969                       # number of overall MSHR miss cycles
system.cpu3.icache.overall_mshr_miss_latency::total      2273969                       # number of overall MSHR miss cycles
system.cpu3.icache.ReadReq_mshr_miss_rate::switch_cpus3.inst     0.000030                       # mshr miss rate for ReadReq accesses
system.cpu3.icache.ReadReq_mshr_miss_rate::total     0.000030                       # mshr miss rate for ReadReq accesses
system.cpu3.icache.demand_mshr_miss_rate::switch_cpus3.inst     0.000030                       # mshr miss rate for demand accesses
system.cpu3.icache.demand_mshr_miss_rate::total     0.000030                       # mshr miss rate for demand accesses
system.cpu3.icache.overall_mshr_miss_rate::switch_cpus3.inst     0.000030                       # mshr miss rate for overall accesses
system.cpu3.icache.overall_mshr_miss_rate::total     0.000030                       # mshr miss rate for overall accesses
system.cpu3.icache.ReadReq_avg_mshr_miss_latency::switch_cpus3.inst 49434.108696                       # average ReadReq mshr miss latency
system.cpu3.icache.ReadReq_avg_mshr_miss_latency::total 49434.108696                       # average ReadReq mshr miss latency
system.cpu3.icache.demand_avg_mshr_miss_latency::switch_cpus3.inst 49434.108696                       # average overall mshr miss latency
system.cpu3.icache.demand_avg_mshr_miss_latency::total 49434.108696                       # average overall mshr miss latency
system.cpu3.icache.overall_avg_mshr_miss_latency::switch_cpus3.inst 49434.108696                       # average overall mshr miss latency
system.cpu3.icache.overall_avg_mshr_miss_latency::total 49434.108696                       # average overall mshr miss latency
system.cpu3.icache.no_allocate_misses               0                       # Number of misses that were no-allocate
system.cpu3.dcache.replacements                  5724                       # number of replacements
system.cpu3.dcache.tagsinuse                      256                       # Cycle average of tags in use
system.cpu3.dcache.total_refs               157426791                       # Total number of references to valid blocks.
system.cpu3.dcache.sampled_refs                  5980                       # Sample count of references to valid blocks.
system.cpu3.dcache.avg_refs              26325.550334                       # Average number of references to valid blocks.
system.cpu3.dcache.warmup_cycle                     0                       # Cycle when the warmup percentage was hit.
system.cpu3.dcache.occ_blocks::switch_cpus3.data   226.088391                       # Average occupied blocks per requestor
system.cpu3.dcache.occ_blocks::cpu3.data    29.911609                       # Average occupied blocks per requestor
system.cpu3.dcache.occ_percent::switch_cpus3.data     0.883158                       # Average percentage of cache occupancy
system.cpu3.dcache.occ_percent::cpu3.data     0.116842                       # Average percentage of cache occupancy
system.cpu3.dcache.occ_percent::total               1                       # Average percentage of cache occupancy
system.cpu3.dcache.ReadReq_hits::switch_cpus3.data      1062525                       # number of ReadReq hits
system.cpu3.dcache.ReadReq_hits::total        1062525                       # number of ReadReq hits
system.cpu3.dcache.WriteReq_hits::switch_cpus3.data       722878                       # number of WriteReq hits
system.cpu3.dcache.WriteReq_hits::total        722878                       # number of WriteReq hits
system.cpu3.dcache.LoadLockedReq_hits::switch_cpus3.data         1861                       # number of LoadLockedReq hits
system.cpu3.dcache.LoadLockedReq_hits::total         1861                       # number of LoadLockedReq hits
system.cpu3.dcache.StoreCondReq_hits::switch_cpus3.data         1702                       # number of StoreCondReq hits
system.cpu3.dcache.StoreCondReq_hits::total         1702                       # number of StoreCondReq hits
system.cpu3.dcache.demand_hits::switch_cpus3.data      1785403                       # number of demand (read+write) hits
system.cpu3.dcache.demand_hits::total         1785403                       # number of demand (read+write) hits
system.cpu3.dcache.overall_hits::switch_cpus3.data      1785403                       # number of overall hits
system.cpu3.dcache.overall_hits::total        1785403                       # number of overall hits
system.cpu3.dcache.ReadReq_misses::switch_cpus3.data        14449                       # number of ReadReq misses
system.cpu3.dcache.ReadReq_misses::total        14449                       # number of ReadReq misses
system.cpu3.dcache.WriteReq_misses::switch_cpus3.data          531                       # number of WriteReq misses
system.cpu3.dcache.WriteReq_misses::total          531                       # number of WriteReq misses
system.cpu3.dcache.demand_misses::switch_cpus3.data        14980                       # number of demand (read+write) misses
system.cpu3.dcache.demand_misses::total         14980                       # number of demand (read+write) misses
system.cpu3.dcache.overall_misses::switch_cpus3.data        14980                       # number of overall misses
system.cpu3.dcache.overall_misses::total        14980                       # number of overall misses
system.cpu3.dcache.ReadReq_miss_latency::switch_cpus3.data    549942022                       # number of ReadReq miss cycles
system.cpu3.dcache.ReadReq_miss_latency::total    549942022                       # number of ReadReq miss cycles
system.cpu3.dcache.WriteReq_miss_latency::switch_cpus3.data     24494903                       # number of WriteReq miss cycles
system.cpu3.dcache.WriteReq_miss_latency::total     24494903                       # number of WriteReq miss cycles
system.cpu3.dcache.demand_miss_latency::switch_cpus3.data    574436925                       # number of demand (read+write) miss cycles
system.cpu3.dcache.demand_miss_latency::total    574436925                       # number of demand (read+write) miss cycles
system.cpu3.dcache.overall_miss_latency::switch_cpus3.data    574436925                       # number of overall miss cycles
system.cpu3.dcache.overall_miss_latency::total    574436925                       # number of overall miss cycles
system.cpu3.dcache.ReadReq_accesses::switch_cpus3.data      1076974                       # number of ReadReq accesses(hits+misses)
system.cpu3.dcache.ReadReq_accesses::total      1076974                       # number of ReadReq accesses(hits+misses)
system.cpu3.dcache.WriteReq_accesses::switch_cpus3.data       723409                       # number of WriteReq accesses(hits+misses)
system.cpu3.dcache.WriteReq_accesses::total       723409                       # number of WriteReq accesses(hits+misses)
system.cpu3.dcache.LoadLockedReq_accesses::switch_cpus3.data         1861                       # number of LoadLockedReq accesses(hits+misses)
system.cpu3.dcache.LoadLockedReq_accesses::total         1861                       # number of LoadLockedReq accesses(hits+misses)
system.cpu3.dcache.StoreCondReq_accesses::switch_cpus3.data         1702                       # number of StoreCondReq accesses(hits+misses)
system.cpu3.dcache.StoreCondReq_accesses::total         1702                       # number of StoreCondReq accesses(hits+misses)
system.cpu3.dcache.demand_accesses::switch_cpus3.data      1800383                       # number of demand (read+write) accesses
system.cpu3.dcache.demand_accesses::total      1800383                       # number of demand (read+write) accesses
system.cpu3.dcache.overall_accesses::switch_cpus3.data      1800383                       # number of overall (read+write) accesses
system.cpu3.dcache.overall_accesses::total      1800383                       # number of overall (read+write) accesses
system.cpu3.dcache.ReadReq_miss_rate::switch_cpus3.data     0.013416                       # miss rate for ReadReq accesses
system.cpu3.dcache.ReadReq_miss_rate::total     0.013416                       # miss rate for ReadReq accesses
system.cpu3.dcache.WriteReq_miss_rate::switch_cpus3.data     0.000734                       # miss rate for WriteReq accesses
system.cpu3.dcache.WriteReq_miss_rate::total     0.000734                       # miss rate for WriteReq accesses
system.cpu3.dcache.demand_miss_rate::switch_cpus3.data     0.008320                       # miss rate for demand accesses
system.cpu3.dcache.demand_miss_rate::total     0.008320                       # miss rate for demand accesses
system.cpu3.dcache.overall_miss_rate::switch_cpus3.data     0.008320                       # miss rate for overall accesses
system.cpu3.dcache.overall_miss_rate::total     0.008320                       # miss rate for overall accesses
system.cpu3.dcache.ReadReq_avg_miss_latency::switch_cpus3.data 38060.905391                       # average ReadReq miss latency
system.cpu3.dcache.ReadReq_avg_miss_latency::total 38060.905391                       # average ReadReq miss latency
system.cpu3.dcache.WriteReq_avg_miss_latency::switch_cpus3.data 46129.760829                       # average WriteReq miss latency
system.cpu3.dcache.WriteReq_avg_miss_latency::total 46129.760829                       # average WriteReq miss latency
system.cpu3.dcache.demand_avg_miss_latency::switch_cpus3.data 38346.924232                       # average overall miss latency
system.cpu3.dcache.demand_avg_miss_latency::total 38346.924232                       # average overall miss latency
system.cpu3.dcache.overall_avg_miss_latency::switch_cpus3.data 38346.924232                       # average overall miss latency
system.cpu3.dcache.overall_avg_miss_latency::total 38346.924232                       # average overall miss latency
system.cpu3.dcache.blocked_cycles::no_mshrs            0                       # number of cycles access was blocked
system.cpu3.dcache.blocked_cycles::no_targets        49708                       # number of cycles access was blocked
system.cpu3.dcache.blocked::no_mshrs                0                       # number of cycles access was blocked
system.cpu3.dcache.blocked::no_targets              2                       # number of cycles access was blocked
system.cpu3.dcache.avg_blocked_cycles::no_mshrs          nan                       # average number of cycles each access was blocked
system.cpu3.dcache.avg_blocked_cycles::no_targets        24854                       # average number of cycles each access was blocked
system.cpu3.dcache.fast_writes                      0                       # number of fast writes performed
system.cpu3.dcache.cache_copies                     0                       # number of cache copies performed
system.cpu3.dcache.writebacks::writebacks         2137                       # number of writebacks
system.cpu3.dcache.writebacks::total             2137                       # number of writebacks
system.cpu3.dcache.ReadReq_mshr_hits::switch_cpus3.data         8780                       # number of ReadReq MSHR hits
system.cpu3.dcache.ReadReq_mshr_hits::total         8780                       # number of ReadReq MSHR hits
system.cpu3.dcache.WriteReq_mshr_hits::switch_cpus3.data          476                       # number of WriteReq MSHR hits
system.cpu3.dcache.WriteReq_mshr_hits::total          476                       # number of WriteReq MSHR hits
system.cpu3.dcache.demand_mshr_hits::switch_cpus3.data         9256                       # number of demand (read+write) MSHR hits
system.cpu3.dcache.demand_mshr_hits::total         9256                       # number of demand (read+write) MSHR hits
system.cpu3.dcache.overall_mshr_hits::switch_cpus3.data         9256                       # number of overall MSHR hits
system.cpu3.dcache.overall_mshr_hits::total         9256                       # number of overall MSHR hits
system.cpu3.dcache.ReadReq_mshr_misses::switch_cpus3.data         5669                       # number of ReadReq MSHR misses
system.cpu3.dcache.ReadReq_mshr_misses::total         5669                       # number of ReadReq MSHR misses
system.cpu3.dcache.WriteReq_mshr_misses::switch_cpus3.data           55                       # number of WriteReq MSHR misses
system.cpu3.dcache.WriteReq_mshr_misses::total           55                       # number of WriteReq MSHR misses
system.cpu3.dcache.demand_mshr_misses::switch_cpus3.data         5724                       # number of demand (read+write) MSHR misses
system.cpu3.dcache.demand_mshr_misses::total         5724                       # number of demand (read+write) MSHR misses
system.cpu3.dcache.overall_mshr_misses::switch_cpus3.data         5724                       # number of overall MSHR misses
system.cpu3.dcache.overall_mshr_misses::total         5724                       # number of overall MSHR misses
system.cpu3.dcache.ReadReq_mshr_miss_latency::switch_cpus3.data    123601261                       # number of ReadReq MSHR miss cycles
system.cpu3.dcache.ReadReq_mshr_miss_latency::total    123601261                       # number of ReadReq MSHR miss cycles
system.cpu3.dcache.WriteReq_mshr_miss_latency::switch_cpus3.data      1321963                       # number of WriteReq MSHR miss cycles
system.cpu3.dcache.WriteReq_mshr_miss_latency::total      1321963                       # number of WriteReq MSHR miss cycles
system.cpu3.dcache.demand_mshr_miss_latency::switch_cpus3.data    124923224                       # number of demand (read+write) MSHR miss cycles
system.cpu3.dcache.demand_mshr_miss_latency::total    124923224                       # number of demand (read+write) MSHR miss cycles
system.cpu3.dcache.overall_mshr_miss_latency::switch_cpus3.data    124923224                       # number of overall MSHR miss cycles
system.cpu3.dcache.overall_mshr_miss_latency::total    124923224                       # number of overall MSHR miss cycles
system.cpu3.dcache.ReadReq_mshr_miss_rate::switch_cpus3.data     0.005264                       # mshr miss rate for ReadReq accesses
system.cpu3.dcache.ReadReq_mshr_miss_rate::total     0.005264                       # mshr miss rate for ReadReq accesses
system.cpu3.dcache.WriteReq_mshr_miss_rate::switch_cpus3.data     0.000076                       # mshr miss rate for WriteReq accesses
system.cpu3.dcache.WriteReq_mshr_miss_rate::total     0.000076                       # mshr miss rate for WriteReq accesses
system.cpu3.dcache.demand_mshr_miss_rate::switch_cpus3.data     0.003179                       # mshr miss rate for demand accesses
system.cpu3.dcache.demand_mshr_miss_rate::total     0.003179                       # mshr miss rate for demand accesses
system.cpu3.dcache.overall_mshr_miss_rate::switch_cpus3.data     0.003179                       # mshr miss rate for overall accesses
system.cpu3.dcache.overall_mshr_miss_rate::total     0.003179                       # mshr miss rate for overall accesses
system.cpu3.dcache.ReadReq_avg_mshr_miss_latency::switch_cpus3.data 21803.009525                       # average ReadReq mshr miss latency
system.cpu3.dcache.ReadReq_avg_mshr_miss_latency::total 21803.009525                       # average ReadReq mshr miss latency
system.cpu3.dcache.WriteReq_avg_mshr_miss_latency::switch_cpus3.data 24035.690909                       # average WriteReq mshr miss latency
system.cpu3.dcache.WriteReq_avg_mshr_miss_latency::total 24035.690909                       # average WriteReq mshr miss latency
system.cpu3.dcache.demand_avg_mshr_miss_latency::switch_cpus3.data 21824.462614                       # average overall mshr miss latency
system.cpu3.dcache.demand_avg_mshr_miss_latency::total 21824.462614                       # average overall mshr miss latency
system.cpu3.dcache.overall_avg_mshr_miss_latency::switch_cpus3.data 21824.462614                       # average overall mshr miss latency
system.cpu3.dcache.overall_avg_mshr_miss_latency::total 21824.462614                       # average overall mshr miss latency
system.cpu3.dcache.no_allocate_misses               0                       # Number of misses that were no-allocate

---------- End Simulation Statistics   ----------
