
---------- Begin Simulation Statistics ----------
sim_seconds                                  0.093883                       # Number of seconds simulated
sim_ticks                                 93883166913                       # Number of ticks simulated
final_tick                               606492369801                       # Number of ticks from beginning of simulation (restored from checkpoints and never reset)
sim_freq                                 1000000000000                       # Frequency of simulated ticks
host_inst_rate                                 316290                       # Simulator instruction rate (inst/s)
host_op_rate                                   404930                       # Simulator op (including micro ops) rate (op/s)
host_tick_rate                                1779296                       # Simulator tick rate (ticks/s)
host_mem_usage                               67617492                       # Number of bytes of host memory used
host_seconds                                 52764.23                       # Real time elapsed on the host
sim_insts                                 16688805716                       # Number of instructions simulated
sim_ops                                   21365817188                       # Number of ops (including micro ops) simulated
system.physmem.bytes_read::switch_cpus00.inst         4992                       # Number of bytes read from this memory
system.physmem.bytes_read::switch_cpus00.data      3494400                       # Number of bytes read from this memory
system.physmem.bytes_read::switch_cpus01.inst         5248                       # Number of bytes read from this memory
system.physmem.bytes_read::switch_cpus01.data      1618688                       # Number of bytes read from this memory
system.physmem.bytes_read::switch_cpus02.inst         4992                       # Number of bytes read from this memory
system.physmem.bytes_read::switch_cpus02.data      1302528                       # Number of bytes read from this memory
system.physmem.bytes_read::switch_cpus03.inst         5376                       # Number of bytes read from this memory
system.physmem.bytes_read::switch_cpus03.data      1614336                       # Number of bytes read from this memory
system.physmem.bytes_read::switch_cpus04.inst         4864                       # Number of bytes read from this memory
system.physmem.bytes_read::switch_cpus04.data      2205952                       # Number of bytes read from this memory
system.physmem.bytes_read::switch_cpus05.inst         4992                       # Number of bytes read from this memory
system.physmem.bytes_read::switch_cpus05.data      2201344                       # Number of bytes read from this memory
system.physmem.bytes_read::switch_cpus06.inst         4608                       # Number of bytes read from this memory
system.physmem.bytes_read::switch_cpus06.data      2249088                       # Number of bytes read from this memory
system.physmem.bytes_read::switch_cpus07.inst         5120                       # Number of bytes read from this memory
system.physmem.bytes_read::switch_cpus07.data      1623552                       # Number of bytes read from this memory
system.physmem.bytes_read::switch_cpus08.inst         4608                       # Number of bytes read from this memory
system.physmem.bytes_read::switch_cpus08.data      1285632                       # Number of bytes read from this memory
system.physmem.bytes_read::switch_cpus09.inst         5376                       # Number of bytes read from this memory
system.physmem.bytes_read::switch_cpus09.data      3615232                       # Number of bytes read from this memory
system.physmem.bytes_read::switch_cpus10.inst         5248                       # Number of bytes read from this memory
system.physmem.bytes_read::switch_cpus10.data      1537536                       # Number of bytes read from this memory
system.physmem.bytes_read::switch_cpus11.inst         4480                       # Number of bytes read from this memory
system.physmem.bytes_read::switch_cpus11.data      2215808                       # Number of bytes read from this memory
system.physmem.bytes_read::switch_cpus12.inst         4352                       # Number of bytes read from this memory
system.physmem.bytes_read::switch_cpus12.data      2286592                       # Number of bytes read from this memory
system.physmem.bytes_read::switch_cpus13.inst         5248                       # Number of bytes read from this memory
system.physmem.bytes_read::switch_cpus13.data      3185024                       # Number of bytes read from this memory
system.physmem.bytes_read::switch_cpus14.inst         5504                       # Number of bytes read from this memory
system.physmem.bytes_read::switch_cpus14.data      1287168                       # Number of bytes read from this memory
system.physmem.bytes_read::switch_cpus15.inst         4608                       # Number of bytes read from this memory
system.physmem.bytes_read::switch_cpus15.data      2266240                       # Number of bytes read from this memory
system.physmem.bytes_read::total             34068736                       # Number of bytes read from this memory
system.physmem.bytes_inst_read::switch_cpus00.inst         4992                       # Number of instructions bytes read from this memory
system.physmem.bytes_inst_read::switch_cpus01.inst         5248                       # Number of instructions bytes read from this memory
system.physmem.bytes_inst_read::switch_cpus02.inst         4992                       # Number of instructions bytes read from this memory
system.physmem.bytes_inst_read::switch_cpus03.inst         5376                       # Number of instructions bytes read from this memory
system.physmem.bytes_inst_read::switch_cpus04.inst         4864                       # Number of instructions bytes read from this memory
system.physmem.bytes_inst_read::switch_cpus05.inst         4992                       # Number of instructions bytes read from this memory
system.physmem.bytes_inst_read::switch_cpus06.inst         4608                       # Number of instructions bytes read from this memory
system.physmem.bytes_inst_read::switch_cpus07.inst         5120                       # Number of instructions bytes read from this memory
system.physmem.bytes_inst_read::switch_cpus08.inst         4608                       # Number of instructions bytes read from this memory
system.physmem.bytes_inst_read::switch_cpus09.inst         5376                       # Number of instructions bytes read from this memory
system.physmem.bytes_inst_read::switch_cpus10.inst         5248                       # Number of instructions bytes read from this memory
system.physmem.bytes_inst_read::switch_cpus11.inst         4480                       # Number of instructions bytes read from this memory
system.physmem.bytes_inst_read::switch_cpus12.inst         4352                       # Number of instructions bytes read from this memory
system.physmem.bytes_inst_read::switch_cpus13.inst         5248                       # Number of instructions bytes read from this memory
system.physmem.bytes_inst_read::switch_cpus14.inst         5504                       # Number of instructions bytes read from this memory
system.physmem.bytes_inst_read::switch_cpus15.inst         4608                       # Number of instructions bytes read from this memory
system.physmem.bytes_inst_read::total           79616                       # Number of instructions bytes read from this memory
system.physmem.bytes_written::writebacks      9619584                       # Number of bytes written to this memory
system.physmem.bytes_written::total           9619584                       # Number of bytes written to this memory
system.physmem.num_reads::switch_cpus00.inst           39                       # Number of read requests responded to by this memory
system.physmem.num_reads::switch_cpus00.data        27300                       # Number of read requests responded to by this memory
system.physmem.num_reads::switch_cpus01.inst           41                       # Number of read requests responded to by this memory
system.physmem.num_reads::switch_cpus01.data        12646                       # Number of read requests responded to by this memory
system.physmem.num_reads::switch_cpus02.inst           39                       # Number of read requests responded to by this memory
system.physmem.num_reads::switch_cpus02.data        10176                       # Number of read requests responded to by this memory
system.physmem.num_reads::switch_cpus03.inst           42                       # Number of read requests responded to by this memory
system.physmem.num_reads::switch_cpus03.data        12612                       # Number of read requests responded to by this memory
system.physmem.num_reads::switch_cpus04.inst           38                       # Number of read requests responded to by this memory
system.physmem.num_reads::switch_cpus04.data        17234                       # Number of read requests responded to by this memory
system.physmem.num_reads::switch_cpus05.inst           39                       # Number of read requests responded to by this memory
system.physmem.num_reads::switch_cpus05.data        17198                       # Number of read requests responded to by this memory
system.physmem.num_reads::switch_cpus06.inst           36                       # Number of read requests responded to by this memory
system.physmem.num_reads::switch_cpus06.data        17571                       # Number of read requests responded to by this memory
system.physmem.num_reads::switch_cpus07.inst           40                       # Number of read requests responded to by this memory
system.physmem.num_reads::switch_cpus07.data        12684                       # Number of read requests responded to by this memory
system.physmem.num_reads::switch_cpus08.inst           36                       # Number of read requests responded to by this memory
system.physmem.num_reads::switch_cpus08.data        10044                       # Number of read requests responded to by this memory
system.physmem.num_reads::switch_cpus09.inst           42                       # Number of read requests responded to by this memory
system.physmem.num_reads::switch_cpus09.data        28244                       # Number of read requests responded to by this memory
system.physmem.num_reads::switch_cpus10.inst           41                       # Number of read requests responded to by this memory
system.physmem.num_reads::switch_cpus10.data        12012                       # Number of read requests responded to by this memory
system.physmem.num_reads::switch_cpus11.inst           35                       # Number of read requests responded to by this memory
system.physmem.num_reads::switch_cpus11.data        17311                       # Number of read requests responded to by this memory
system.physmem.num_reads::switch_cpus12.inst           34                       # Number of read requests responded to by this memory
system.physmem.num_reads::switch_cpus12.data        17864                       # Number of read requests responded to by this memory
system.physmem.num_reads::switch_cpus13.inst           41                       # Number of read requests responded to by this memory
system.physmem.num_reads::switch_cpus13.data        24883                       # Number of read requests responded to by this memory
system.physmem.num_reads::switch_cpus14.inst           43                       # Number of read requests responded to by this memory
system.physmem.num_reads::switch_cpus14.data        10056                       # Number of read requests responded to by this memory
system.physmem.num_reads::switch_cpus15.inst           36                       # Number of read requests responded to by this memory
system.physmem.num_reads::switch_cpus15.data        17705                       # Number of read requests responded to by this memory
system.physmem.num_reads::total                266162                       # Number of read requests responded to by this memory
system.physmem.num_writes::writebacks           75153                       # Number of write requests responded to by this memory
system.physmem.num_writes::functional               0                       # Number of write requests responded to by this memory
system.physmem.num_writes::interrupt                0                       # Number of write requests responded to by this memory
system.physmem.num_writes::switch_cpus00.dtb.walker            0                       # Number of write requests responded to by this memory
system.physmem.num_writes::switch_cpus00.itb.walker            0                       # Number of write requests responded to by this memory
system.physmem.num_writes::switch_cpus00.inst            0                       # Number of write requests responded to by this memory
system.physmem.num_writes::switch_cpus00.data            0                       # Number of write requests responded to by this memory
system.physmem.num_writes::switch_cpus01.dtb.walker            0                       # Number of write requests responded to by this memory
system.physmem.num_writes::switch_cpus01.itb.walker            0                       # Number of write requests responded to by this memory
system.physmem.num_writes::switch_cpus01.inst            0                       # Number of write requests responded to by this memory
system.physmem.num_writes::switch_cpus01.data            0                       # Number of write requests responded to by this memory
system.physmem.num_writes::switch_cpus02.dtb.walker            0                       # Number of write requests responded to by this memory
system.physmem.num_writes::switch_cpus02.itb.walker            0                       # Number of write requests responded to by this memory
system.physmem.num_writes::switch_cpus02.inst            0                       # Number of write requests responded to by this memory
system.physmem.num_writes::switch_cpus02.data            0                       # Number of write requests responded to by this memory
system.physmem.num_writes::switch_cpus03.dtb.walker            0                       # Number of write requests responded to by this memory
system.physmem.num_writes::switch_cpus03.itb.walker            0                       # Number of write requests responded to by this memory
system.physmem.num_writes::switch_cpus03.inst            0                       # Number of write requests responded to by this memory
system.physmem.num_writes::switch_cpus03.data            0                       # Number of write requests responded to by this memory
system.physmem.num_writes::switch_cpus04.dtb.walker            0                       # Number of write requests responded to by this memory
system.physmem.num_writes::switch_cpus04.itb.walker            0                       # Number of write requests responded to by this memory
system.physmem.num_writes::switch_cpus04.inst            0                       # Number of write requests responded to by this memory
system.physmem.num_writes::switch_cpus04.data            0                       # Number of write requests responded to by this memory
system.physmem.num_writes::switch_cpus05.dtb.walker            0                       # Number of write requests responded to by this memory
system.physmem.num_writes::switch_cpus05.itb.walker            0                       # Number of write requests responded to by this memory
system.physmem.num_writes::switch_cpus05.inst            0                       # Number of write requests responded to by this memory
system.physmem.num_writes::switch_cpus05.data            0                       # Number of write requests responded to by this memory
system.physmem.num_writes::switch_cpus06.dtb.walker            0                       # Number of write requests responded to by this memory
system.physmem.num_writes::switch_cpus06.itb.walker            0                       # Number of write requests responded to by this memory
system.physmem.num_writes::switch_cpus06.inst            0                       # Number of write requests responded to by this memory
system.physmem.num_writes::switch_cpus06.data            0                       # Number of write requests responded to by this memory
system.physmem.num_writes::switch_cpus07.dtb.walker            0                       # Number of write requests responded to by this memory
system.physmem.num_writes::switch_cpus07.itb.walker            0                       # Number of write requests responded to by this memory
system.physmem.num_writes::switch_cpus07.inst            0                       # Number of write requests responded to by this memory
system.physmem.num_writes::switch_cpus07.data            0                       # Number of write requests responded to by this memory
system.physmem.num_writes::switch_cpus08.dtb.walker            0                       # Number of write requests responded to by this memory
system.physmem.num_writes::switch_cpus08.itb.walker            0                       # Number of write requests responded to by this memory
system.physmem.num_writes::switch_cpus08.inst            0                       # Number of write requests responded to by this memory
system.physmem.num_writes::switch_cpus08.data            0                       # Number of write requests responded to by this memory
system.physmem.num_writes::switch_cpus09.dtb.walker            0                       # Number of write requests responded to by this memory
system.physmem.num_writes::switch_cpus09.itb.walker            0                       # Number of write requests responded to by this memory
system.physmem.num_writes::switch_cpus09.inst            0                       # Number of write requests responded to by this memory
system.physmem.num_writes::switch_cpus09.data            0                       # Number of write requests responded to by this memory
system.physmem.num_writes::switch_cpus10.dtb.walker            0                       # Number of write requests responded to by this memory
system.physmem.num_writes::switch_cpus10.itb.walker            0                       # Number of write requests responded to by this memory
system.physmem.num_writes::switch_cpus10.inst            0                       # Number of write requests responded to by this memory
system.physmem.num_writes::switch_cpus10.data            0                       # Number of write requests responded to by this memory
system.physmem.num_writes::switch_cpus11.dtb.walker            0                       # Number of write requests responded to by this memory
system.physmem.num_writes::switch_cpus11.itb.walker            0                       # Number of write requests responded to by this memory
system.physmem.num_writes::switch_cpus11.inst            0                       # Number of write requests responded to by this memory
system.physmem.num_writes::switch_cpus11.data            0                       # Number of write requests responded to by this memory
system.physmem.num_writes::switch_cpus12.dtb.walker            0                       # Number of write requests responded to by this memory
system.physmem.num_writes::switch_cpus12.itb.walker            0                       # Number of write requests responded to by this memory
system.physmem.num_writes::switch_cpus12.inst            0                       # Number of write requests responded to by this memory
system.physmem.num_writes::switch_cpus12.data            0                       # Number of write requests responded to by this memory
system.physmem.num_writes::switch_cpus13.dtb.walker            0                       # Number of write requests responded to by this memory
system.physmem.num_writes::switch_cpus13.itb.walker            0                       # Number of write requests responded to by this memory
system.physmem.num_writes::switch_cpus13.inst            0                       # Number of write requests responded to by this memory
system.physmem.num_writes::switch_cpus13.data            0                       # Number of write requests responded to by this memory
system.physmem.num_writes::switch_cpus14.dtb.walker            0                       # Number of write requests responded to by this memory
system.physmem.num_writes::switch_cpus14.itb.walker            0                       # Number of write requests responded to by this memory
system.physmem.num_writes::switch_cpus14.inst            0                       # Number of write requests responded to by this memory
system.physmem.num_writes::switch_cpus14.data            0                       # Number of write requests responded to by this memory
system.physmem.num_writes::switch_cpus15.dtb.walker            0                       # Number of write requests responded to by this memory
system.physmem.num_writes::switch_cpus15.itb.walker            0                       # Number of write requests responded to by this memory
system.physmem.num_writes::switch_cpus15.inst            0                       # Number of write requests responded to by this memory
system.physmem.num_writes::switch_cpus15.data            0                       # Number of write requests responded to by this memory
system.physmem.num_writes::cpu00.dtb.walker            0                       # Number of write requests responded to by this memory
system.physmem.num_writes::cpu00.itb.walker            0                       # Number of write requests responded to by this memory
system.physmem.num_writes::cpu00.inst               0                       # Number of write requests responded to by this memory
system.physmem.num_writes::cpu00.data               0                       # Number of write requests responded to by this memory
system.physmem.num_writes::cpu01.dtb.walker            0                       # Number of write requests responded to by this memory
system.physmem.num_writes::cpu01.itb.walker            0                       # Number of write requests responded to by this memory
system.physmem.num_writes::cpu01.inst               0                       # Number of write requests responded to by this memory
system.physmem.num_writes::cpu01.data               0                       # Number of write requests responded to by this memory
system.physmem.num_writes::cpu02.dtb.walker            0                       # Number of write requests responded to by this memory
system.physmem.num_writes::cpu02.itb.walker            0                       # Number of write requests responded to by this memory
system.physmem.num_writes::cpu02.inst               0                       # Number of write requests responded to by this memory
system.physmem.num_writes::cpu02.data               0                       # Number of write requests responded to by this memory
system.physmem.num_writes::cpu03.dtb.walker            0                       # Number of write requests responded to by this memory
system.physmem.num_writes::cpu03.itb.walker            0                       # Number of write requests responded to by this memory
system.physmem.num_writes::cpu03.inst               0                       # Number of write requests responded to by this memory
system.physmem.num_writes::cpu03.data               0                       # Number of write requests responded to by this memory
system.physmem.num_writes::cpu04.dtb.walker            0                       # Number of write requests responded to by this memory
system.physmem.num_writes::cpu04.itb.walker            0                       # Number of write requests responded to by this memory
system.physmem.num_writes::cpu04.inst               0                       # Number of write requests responded to by this memory
system.physmem.num_writes::cpu04.data               0                       # Number of write requests responded to by this memory
system.physmem.num_writes::cpu05.dtb.walker            0                       # Number of write requests responded to by this memory
system.physmem.num_writes::cpu05.itb.walker            0                       # Number of write requests responded to by this memory
system.physmem.num_writes::cpu05.inst               0                       # Number of write requests responded to by this memory
system.physmem.num_writes::cpu05.data               0                       # Number of write requests responded to by this memory
system.physmem.num_writes::cpu06.dtb.walker            0                       # Number of write requests responded to by this memory
system.physmem.num_writes::cpu06.itb.walker            0                       # Number of write requests responded to by this memory
system.physmem.num_writes::cpu06.inst               0                       # Number of write requests responded to by this memory
system.physmem.num_writes::cpu06.data               0                       # Number of write requests responded to by this memory
system.physmem.num_writes::cpu07.dtb.walker            0                       # Number of write requests responded to by this memory
system.physmem.num_writes::cpu07.itb.walker            0                       # Number of write requests responded to by this memory
system.physmem.num_writes::cpu07.inst               0                       # Number of write requests responded to by this memory
system.physmem.num_writes::cpu07.data               0                       # Number of write requests responded to by this memory
system.physmem.num_writes::cpu08.dtb.walker            0                       # Number of write requests responded to by this memory
system.physmem.num_writes::cpu08.itb.walker            0                       # Number of write requests responded to by this memory
system.physmem.num_writes::cpu08.inst               0                       # Number of write requests responded to by this memory
system.physmem.num_writes::cpu08.data               0                       # Number of write requests responded to by this memory
system.physmem.num_writes::cpu09.dtb.walker            0                       # Number of write requests responded to by this memory
system.physmem.num_writes::cpu09.itb.walker            0                       # Number of write requests responded to by this memory
system.physmem.num_writes::cpu09.inst               0                       # Number of write requests responded to by this memory
system.physmem.num_writes::cpu09.data               0                       # Number of write requests responded to by this memory
system.physmem.num_writes::cpu10.dtb.walker            0                       # Number of write requests responded to by this memory
system.physmem.num_writes::cpu10.itb.walker            0                       # Number of write requests responded to by this memory
system.physmem.num_writes::cpu10.inst               0                       # Number of write requests responded to by this memory
system.physmem.num_writes::cpu10.data               0                       # Number of write requests responded to by this memory
system.physmem.num_writes::cpu11.dtb.walker            0                       # Number of write requests responded to by this memory
system.physmem.num_writes::cpu11.itb.walker            0                       # Number of write requests responded to by this memory
system.physmem.num_writes::cpu11.inst               0                       # Number of write requests responded to by this memory
system.physmem.num_writes::cpu11.data               0                       # Number of write requests responded to by this memory
system.physmem.num_writes::cpu12.dtb.walker            0                       # Number of write requests responded to by this memory
system.physmem.num_writes::cpu12.itb.walker            0                       # Number of write requests responded to by this memory
system.physmem.num_writes::cpu12.inst               0                       # Number of write requests responded to by this memory
system.physmem.num_writes::cpu12.data               0                       # Number of write requests responded to by this memory
system.physmem.num_writes::cpu13.dtb.walker            0                       # Number of write requests responded to by this memory
system.physmem.num_writes::cpu13.itb.walker            0                       # Number of write requests responded to by this memory
system.physmem.num_writes::cpu13.inst               0                       # Number of write requests responded to by this memory
system.physmem.num_writes::cpu13.data               0                       # Number of write requests responded to by this memory
system.physmem.num_writes::cpu14.dtb.walker            0                       # Number of write requests responded to by this memory
system.physmem.num_writes::cpu14.itb.walker            0                       # Number of write requests responded to by this memory
system.physmem.num_writes::cpu14.inst               0                       # Number of write requests responded to by this memory
system.physmem.num_writes::cpu14.data               0                       # Number of write requests responded to by this memory
system.physmem.num_writes::cpu15.dtb.walker            0                       # Number of write requests responded to by this memory
system.physmem.num_writes::cpu15.itb.walker            0                       # Number of write requests responded to by this memory
system.physmem.num_writes::cpu15.inst               0                       # Number of write requests responded to by this memory
system.physmem.num_writes::cpu15.data               0                       # Number of write requests responded to by this memory
system.physmem.num_writes::total                75153                       # Number of write requests responded to by this memory
system.physmem.bw_read::switch_cpus00.inst        53172                       # Total read bandwidth from this memory (bytes/s)
system.physmem.bw_read::switch_cpus00.data     37220730                       # Total read bandwidth from this memory (bytes/s)
system.physmem.bw_read::switch_cpus01.inst        55899                       # Total read bandwidth from this memory (bytes/s)
system.physmem.bw_read::switch_cpus01.data     17241515                       # Total read bandwidth from this memory (bytes/s)
system.physmem.bw_read::switch_cpus02.inst        53172                       # Total read bandwidth from this memory (bytes/s)
system.physmem.bw_read::switch_cpus02.data     13873925                       # Total read bandwidth from this memory (bytes/s)
system.physmem.bw_read::switch_cpus03.inst        57263                       # Total read bandwidth from this memory (bytes/s)
system.physmem.bw_read::switch_cpus03.data     17195159                       # Total read bandwidth from this memory (bytes/s)
system.physmem.bw_read::switch_cpus04.inst        51809                       # Total read bandwidth from this memory (bytes/s)
system.physmem.bw_read::switch_cpus04.data     23496779                       # Total read bandwidth from this memory (bytes/s)
system.physmem.bw_read::switch_cpus05.inst        53172                       # Total read bandwidth from this memory (bytes/s)
system.physmem.bw_read::switch_cpus05.data     23447696                       # Total read bandwidth from this memory (bytes/s)
system.physmem.bw_read::switch_cpus06.inst        49082                       # Total read bandwidth from this memory (bytes/s)
system.physmem.bw_read::switch_cpus06.data     23956243                       # Total read bandwidth from this memory (bytes/s)
system.physmem.bw_read::switch_cpus07.inst        54536                       # Total read bandwidth from this memory (bytes/s)
system.physmem.bw_read::switch_cpus07.data     17293324                       # Total read bandwidth from this memory (bytes/s)
system.physmem.bw_read::switch_cpus08.inst        49082                       # Total read bandwidth from this memory (bytes/s)
system.physmem.bw_read::switch_cpus08.data     13693956                       # Total read bandwidth from this memory (bytes/s)
system.physmem.bw_read::switch_cpus09.inst        57263                       # Total read bandwidth from this memory (bytes/s)
system.physmem.bw_read::switch_cpus09.data     38507776                       # Total read bandwidth from this memory (bytes/s)
system.physmem.bw_read::switch_cpus10.inst        55899                       # Total read bandwidth from this memory (bytes/s)
system.physmem.bw_read::switch_cpus10.data     16377121                       # Total read bandwidth from this memory (bytes/s)
system.physmem.bw_read::switch_cpus11.inst        47719                       # Total read bandwidth from this memory (bytes/s)
system.physmem.bw_read::switch_cpus11.data     23601760                       # Total read bandwidth from this memory (bytes/s)
system.physmem.bw_read::switch_cpus12.inst        46355                       # Total read bandwidth from this memory (bytes/s)
system.physmem.bw_read::switch_cpus12.data     24355719                       # Total read bandwidth from this memory (bytes/s)
system.physmem.bw_read::switch_cpus13.inst        55899                       # Total read bandwidth from this memory (bytes/s)
system.physmem.bw_read::switch_cpus13.data     33925400                       # Total read bandwidth from this memory (bytes/s)
system.physmem.bw_read::switch_cpus14.inst        58626                       # Total read bandwidth from this memory (bytes/s)
system.physmem.bw_read::switch_cpus14.data     13710317                       # Total read bandwidth from this memory (bytes/s)
system.physmem.bw_read::switch_cpus15.inst        49082                       # Total read bandwidth from this memory (bytes/s)
system.physmem.bw_read::switch_cpus15.data     24138939                       # Total read bandwidth from this memory (bytes/s)
system.physmem.bw_read::total               362884393                       # Total read bandwidth from this memory (bytes/s)
system.physmem.bw_inst_read::switch_cpus00.inst        53172                       # Instruction read bandwidth from this memory (bytes/s)
system.physmem.bw_inst_read::switch_cpus01.inst        55899                       # Instruction read bandwidth from this memory (bytes/s)
system.physmem.bw_inst_read::switch_cpus02.inst        53172                       # Instruction read bandwidth from this memory (bytes/s)
system.physmem.bw_inst_read::switch_cpus03.inst        57263                       # Instruction read bandwidth from this memory (bytes/s)
system.physmem.bw_inst_read::switch_cpus04.inst        51809                       # Instruction read bandwidth from this memory (bytes/s)
system.physmem.bw_inst_read::switch_cpus05.inst        53172                       # Instruction read bandwidth from this memory (bytes/s)
system.physmem.bw_inst_read::switch_cpus06.inst        49082                       # Instruction read bandwidth from this memory (bytes/s)
system.physmem.bw_inst_read::switch_cpus07.inst        54536                       # Instruction read bandwidth from this memory (bytes/s)
system.physmem.bw_inst_read::switch_cpus08.inst        49082                       # Instruction read bandwidth from this memory (bytes/s)
system.physmem.bw_inst_read::switch_cpus09.inst        57263                       # Instruction read bandwidth from this memory (bytes/s)
system.physmem.bw_inst_read::switch_cpus10.inst        55899                       # Instruction read bandwidth from this memory (bytes/s)
system.physmem.bw_inst_read::switch_cpus11.inst        47719                       # Instruction read bandwidth from this memory (bytes/s)
system.physmem.bw_inst_read::switch_cpus12.inst        46355                       # Instruction read bandwidth from this memory (bytes/s)
system.physmem.bw_inst_read::switch_cpus13.inst        55899                       # Instruction read bandwidth from this memory (bytes/s)
system.physmem.bw_inst_read::switch_cpus14.inst        58626                       # Instruction read bandwidth from this memory (bytes/s)
system.physmem.bw_inst_read::switch_cpus15.inst        49082                       # Instruction read bandwidth from this memory (bytes/s)
system.physmem.bw_inst_read::total             848033                       # Instruction read bandwidth from this memory (bytes/s)
system.physmem.bw_write::writebacks         102463352                       # Write bandwidth from this memory (bytes/s)
system.physmem.bw_write::total              102463352                       # Write bandwidth from this memory (bytes/s)
system.physmem.bw_total::writebacks         102463352                       # Total bandwidth to/from this memory (bytes/s)
system.physmem.bw_total::switch_cpus00.inst        53172                       # Total bandwidth to/from this memory (bytes/s)
system.physmem.bw_total::switch_cpus00.data     37220730                       # Total bandwidth to/from this memory (bytes/s)
system.physmem.bw_total::switch_cpus01.inst        55899                       # Total bandwidth to/from this memory (bytes/s)
system.physmem.bw_total::switch_cpus01.data     17241515                       # Total bandwidth to/from this memory (bytes/s)
system.physmem.bw_total::switch_cpus02.inst        53172                       # Total bandwidth to/from this memory (bytes/s)
system.physmem.bw_total::switch_cpus02.data     13873925                       # Total bandwidth to/from this memory (bytes/s)
system.physmem.bw_total::switch_cpus03.inst        57263                       # Total bandwidth to/from this memory (bytes/s)
system.physmem.bw_total::switch_cpus03.data     17195159                       # Total bandwidth to/from this memory (bytes/s)
system.physmem.bw_total::switch_cpus04.inst        51809                       # Total bandwidth to/from this memory (bytes/s)
system.physmem.bw_total::switch_cpus04.data     23496779                       # Total bandwidth to/from this memory (bytes/s)
system.physmem.bw_total::switch_cpus05.inst        53172                       # Total bandwidth to/from this memory (bytes/s)
system.physmem.bw_total::switch_cpus05.data     23447696                       # Total bandwidth to/from this memory (bytes/s)
system.physmem.bw_total::switch_cpus06.inst        49082                       # Total bandwidth to/from this memory (bytes/s)
system.physmem.bw_total::switch_cpus06.data     23956243                       # Total bandwidth to/from this memory (bytes/s)
system.physmem.bw_total::switch_cpus07.inst        54536                       # Total bandwidth to/from this memory (bytes/s)
system.physmem.bw_total::switch_cpus07.data     17293324                       # Total bandwidth to/from this memory (bytes/s)
system.physmem.bw_total::switch_cpus08.inst        49082                       # Total bandwidth to/from this memory (bytes/s)
system.physmem.bw_total::switch_cpus08.data     13693956                       # Total bandwidth to/from this memory (bytes/s)
system.physmem.bw_total::switch_cpus09.inst        57263                       # Total bandwidth to/from this memory (bytes/s)
system.physmem.bw_total::switch_cpus09.data     38507776                       # Total bandwidth to/from this memory (bytes/s)
system.physmem.bw_total::switch_cpus10.inst        55899                       # Total bandwidth to/from this memory (bytes/s)
system.physmem.bw_total::switch_cpus10.data     16377121                       # Total bandwidth to/from this memory (bytes/s)
system.physmem.bw_total::switch_cpus11.inst        47719                       # Total bandwidth to/from this memory (bytes/s)
system.physmem.bw_total::switch_cpus11.data     23601760                       # Total bandwidth to/from this memory (bytes/s)
system.physmem.bw_total::switch_cpus12.inst        46355                       # Total bandwidth to/from this memory (bytes/s)
system.physmem.bw_total::switch_cpus12.data     24355719                       # Total bandwidth to/from this memory (bytes/s)
system.physmem.bw_total::switch_cpus13.inst        55899                       # Total bandwidth to/from this memory (bytes/s)
system.physmem.bw_total::switch_cpus13.data     33925400                       # Total bandwidth to/from this memory (bytes/s)
system.physmem.bw_total::switch_cpus14.inst        58626                       # Total bandwidth to/from this memory (bytes/s)
system.physmem.bw_total::switch_cpus14.data     13710317                       # Total bandwidth to/from this memory (bytes/s)
system.physmem.bw_total::switch_cpus15.inst        49082                       # Total bandwidth to/from this memory (bytes/s)
system.physmem.bw_total::switch_cpus15.data     24138939                       # Total bandwidth to/from this memory (bytes/s)
system.physmem.bw_total::total              465347745                       # Total bandwidth to/from this memory (bytes/s)
system.switch_cpus00.dtb.inst_hits                  0                       # ITB inst hits
system.switch_cpus00.dtb.inst_misses                0                       # ITB inst misses
system.switch_cpus00.dtb.read_hits                  0                       # DTB read hits
system.switch_cpus00.dtb.read_misses                0                       # DTB read misses
system.switch_cpus00.dtb.write_hits                 0                       # DTB write hits
system.switch_cpus00.dtb.write_misses               0                       # DTB write misses
system.switch_cpus00.dtb.flush_tlb                  0                       # Number of times complete TLB was flushed
system.switch_cpus00.dtb.flush_tlb_mva              0                       # Number of times TLB was flushed by MVA
system.switch_cpus00.dtb.flush_tlb_mva_asid            0                       # Number of times TLB was flushed by MVA & ASID
system.switch_cpus00.dtb.flush_tlb_asid             0                       # Number of times TLB was flushed by ASID
system.switch_cpus00.dtb.flush_entries              0                       # Number of entries that have been flushed from TLB
system.switch_cpus00.dtb.align_faults               0                       # Number of TLB faults due to alignment restrictions
system.switch_cpus00.dtb.prefetch_faults            0                       # Number of TLB faults due to prefetch
system.switch_cpus00.dtb.domain_faults              0                       # Number of TLB faults due to domain restrictions
system.switch_cpus00.dtb.perms_faults               0                       # Number of TLB faults due to permissions restrictions
system.switch_cpus00.dtb.read_accesses              0                       # DTB read accesses
system.switch_cpus00.dtb.write_accesses             0                       # DTB write accesses
system.switch_cpus00.dtb.inst_accesses              0                       # ITB inst accesses
system.switch_cpus00.dtb.hits                       0                       # DTB hits
system.switch_cpus00.dtb.misses                     0                       # DTB misses
system.switch_cpus00.dtb.accesses                   0                       # DTB accesses
system.switch_cpus00.itb.inst_hits                  0                       # ITB inst hits
system.switch_cpus00.itb.inst_misses                0                       # ITB inst misses
system.switch_cpus00.itb.read_hits                  0                       # DTB read hits
system.switch_cpus00.itb.read_misses                0                       # DTB read misses
system.switch_cpus00.itb.write_hits                 0                       # DTB write hits
system.switch_cpus00.itb.write_misses               0                       # DTB write misses
system.switch_cpus00.itb.flush_tlb                  0                       # Number of times complete TLB was flushed
system.switch_cpus00.itb.flush_tlb_mva              0                       # Number of times TLB was flushed by MVA
system.switch_cpus00.itb.flush_tlb_mva_asid            0                       # Number of times TLB was flushed by MVA & ASID
system.switch_cpus00.itb.flush_tlb_asid             0                       # Number of times TLB was flushed by ASID
system.switch_cpus00.itb.flush_entries              0                       # Number of entries that have been flushed from TLB
system.switch_cpus00.itb.align_faults               0                       # Number of TLB faults due to alignment restrictions
system.switch_cpus00.itb.prefetch_faults            0                       # Number of TLB faults due to prefetch
system.switch_cpus00.itb.domain_faults              0                       # Number of TLB faults due to domain restrictions
system.switch_cpus00.itb.perms_faults               0                       # Number of TLB faults due to permissions restrictions
system.switch_cpus00.itb.read_accesses              0                       # DTB read accesses
system.switch_cpus00.itb.write_accesses             0                       # DTB write accesses
system.switch_cpus00.itb.inst_accesses              0                       # ITB inst accesses
system.switch_cpus00.itb.hits                       0                       # DTB hits
system.switch_cpus00.itb.misses                     0                       # DTB misses
system.switch_cpus00.itb.accesses                   0                       # DTB accesses
system.cpu00.workload.num_syscalls                 23                       # Number of system calls
system.switch_cpus00.numCycles              225139490                       # number of cpu cycles simulated
system.switch_cpus00.numWorkItemsStarted            0                       # number of work items this cpu started
system.switch_cpus00.numWorkItemsCompleted            0                       # number of work items this cpu completed
system.switch_cpus00.BPredUnit.lookups       17538251                       # Number of BP lookups
system.switch_cpus00.BPredUnit.condPredicted     15825787                       # Number of conditional branches predicted
system.switch_cpus00.BPredUnit.condIncorrect       919262                       # Number of conditional branches incorrect
system.switch_cpus00.BPredUnit.BTBLookups      6548160                       # Number of BTB lookups
system.switch_cpus00.BPredUnit.BTBHits        6273937                       # Number of BTB hits
system.switch_cpus00.BPredUnit.BTBCorrect            0                       # Number of correct BTB predictions (this stat may not work properly.
system.switch_cpus00.BPredUnit.usedRAS         969539                       # Number of times the RAS was used to get a target.
system.switch_cpus00.BPredUnit.RASInCorrect        40625                       # Number of incorrect RAS predictions.
system.switch_cpus00.fetch.icacheStallCycles    185911982                       # Number of cycles fetch is stalled on an Icache miss
system.switch_cpus00.fetch.Insts            110321687                       # Number of instructions fetch has processed
system.switch_cpus00.fetch.Branches          17538251                       # Number of branches that fetch encountered
system.switch_cpus00.fetch.predictedBranches      7243476                       # Number of branches that fetch has predicted taken
system.switch_cpus00.fetch.Cycles            21816638                       # Number of cycles fetch has run and was not squashing or blocked
system.switch_cpus00.fetch.SquashCycles       2885349                       # Number of cycles fetch has spent squashing
system.switch_cpus00.fetch.BlockedCycles      4379147                       # Number of cycles fetch has spent blocked
system.switch_cpus00.fetch.CacheLines        10670935                       # Number of cache lines fetched
system.switch_cpus00.fetch.IcacheSquashes       923948                       # Number of outstanding Icache misses that were squashed
system.switch_cpus00.fetch.rateDist::samples    214050927                       # Number of instructions fetched each cycle (Total)
system.switch_cpus00.fetch.rateDist::mean     0.604622                       # Number of instructions fetched each cycle (Total)
system.switch_cpus00.fetch.rateDist::stdev     1.932499                       # Number of instructions fetched each cycle (Total)
system.switch_cpus00.fetch.rateDist::underflows            0      0.00%      0.00% # Number of instructions fetched each cycle (Total)
system.switch_cpus00.fetch.rateDist::0      192234289     89.81%     89.81% # Number of instructions fetched each cycle (Total)
system.switch_cpus00.fetch.rateDist::1         779865      0.36%     90.17% # Number of instructions fetched each cycle (Total)
system.switch_cpus00.fetch.rateDist::2        1593588      0.74%     90.92% # Number of instructions fetched each cycle (Total)
system.switch_cpus00.fetch.rateDist::3         666892      0.31%     91.23% # Number of instructions fetched each cycle (Total)
system.switch_cpus00.fetch.rateDist::4        3629836      1.70%     92.92% # Number of instructions fetched each cycle (Total)
system.switch_cpus00.fetch.rateDist::5        3225891      1.51%     94.43% # Number of instructions fetched each cycle (Total)
system.switch_cpus00.fetch.rateDist::6         627257      0.29%     94.72% # Number of instructions fetched each cycle (Total)
system.switch_cpus00.fetch.rateDist::7        1306601      0.61%     95.33% # Number of instructions fetched each cycle (Total)
system.switch_cpus00.fetch.rateDist::8        9986708      4.67%    100.00% # Number of instructions fetched each cycle (Total)
system.switch_cpus00.fetch.rateDist::overflows            0      0.00%    100.00% # Number of instructions fetched each cycle (Total)
system.switch_cpus00.fetch.rateDist::min_value            0                       # Number of instructions fetched each cycle (Total)
system.switch_cpus00.fetch.rateDist::max_value            8                       # Number of instructions fetched each cycle (Total)
system.switch_cpus00.fetch.rateDist::total    214050927                       # Number of instructions fetched each cycle (Total)
system.switch_cpus00.fetch.branchRate        0.077899                       # Number of branch fetches per cycle
system.switch_cpus00.fetch.rate              0.490015                       # Number of inst fetches per cycle
system.switch_cpus00.decode.IdleCycles      184875318                       # Number of cycles decode is idle
system.switch_cpus00.decode.BlockedCycles      5427155                       # Number of cycles decode is blocked
system.switch_cpus00.decode.RunCycles        21737017                       # Number of cycles decode is running
system.switch_cpus00.decode.UnblockCycles        68762                       # Number of cycles decode is unblocking
system.switch_cpus00.decode.SquashCycles      1942669                       # Number of cycles decode is squashing
system.switch_cpus00.decode.BranchResolved      1539339                       # Number of times decode resolved a branch
system.switch_cpus00.decode.BranchMispred          491                       # Number of times decode detected a branch misprediction
system.switch_cpus00.decode.DecodedInsts    129359279                       # Number of instructions handled by decode
system.switch_cpus00.decode.SquashedInsts         2725                       # Number of squashed instructions handled by decode
system.switch_cpus00.rename.SquashCycles      1942669                       # Number of cycles rename is squashing
system.switch_cpus00.rename.IdleCycles      185062614                       # Number of cycles rename is idle
system.switch_cpus00.rename.BlockCycles       3892419                       # Number of cycles rename is blocking
system.switch_cpus00.rename.serializeStallCycles       948944                       # count of cycles rename stalled for serializing inst
system.switch_cpus00.rename.RunCycles        21631309                       # Number of cycles rename is running
system.switch_cpus00.rename.UnblockCycles       572966                       # Number of cycles rename is unblocking
system.switch_cpus00.rename.RenamedInsts    129291985                       # Number of instructions processed by rename
system.switch_cpus00.rename.ROBFullEvents          108                       # Number of times rename has blocked due to ROB full
system.switch_cpus00.rename.IQFullEvents       244253                       # Number of times rename has blocked due to IQ full
system.switch_cpus00.rename.LSQFullEvents       208212                       # Number of times rename has blocked due to LSQ full
system.switch_cpus00.rename.FullRegisterEvents         3307                       # Number of times there has been no free registers
system.switch_cpus00.rename.RenamedOperands    151787177                       # Number of destination operands rename has renamed
system.switch_cpus00.rename.RenameLookups    608982911                       # Number of register rename lookups that rename has made
system.switch_cpus00.rename.int_rename_lookups    608982911                       # Number of integer rename lookups
system.switch_cpus00.rename.CommittedMaps    134722847                       # Number of HB maps that are committed
system.switch_cpus00.rename.UndoneMaps       17064313                       # Number of HB maps that are undone due to squashing
system.switch_cpus00.rename.serializingInsts        14997                       # count of serializing insts renamed
system.switch_cpus00.rename.tempSerializingInsts         7563                       # count of temporary serializing insts renamed
system.switch_cpus00.rename.skidInsts         1449056                       # count of insts added to the skid buffer
system.switch_cpus00.memDep0.insertedLoads     30512039                       # Number of loads inserted to the mem dependence unit.
system.switch_cpus00.memDep0.insertedStores     15436977                       # Number of stores inserted to the mem dependence unit.
system.switch_cpus00.memDep0.conflictingLoads       139870                       # Number of conflicting loads.
system.switch_cpus00.memDep0.conflictingStores       748078                       # Number of conflicting stores.
system.switch_cpus00.iq.iqInstsAdded        129041414                       # Number of instructions added to the IQ (excludes non-spec)
system.switch_cpus00.iq.iqNonSpecInstsAdded        15043                       # Number of non-speculative instructions added to the IQ
system.switch_cpus00.iq.iqInstsIssued       124106365                       # Number of instructions issued
system.switch_cpus00.iq.iqSquashedInstsIssued        64351                       # Number of squashed instructions issued
system.switch_cpus00.iq.iqSquashedInstsExamined      9893517                       # Number of squashed instructions iterated over during squash; mainly for profiling
system.switch_cpus00.iq.iqSquashedOperandsExamined     23685273                       # Number of squashed operands that are examined and possibly removed from graph
system.switch_cpus00.iq.iqSquashedNonSpecRemoved           64                       # Number of squashed non-spec instructions that were removed
system.switch_cpus00.iq.issued_per_cycle::samples    214050927                       # Number of insts issued each cycle
system.switch_cpus00.iq.issued_per_cycle::mean     0.579798                       # Number of insts issued each cycle
system.switch_cpus00.iq.issued_per_cycle::stdev     1.377333                       # Number of insts issued each cycle
system.switch_cpus00.iq.issued_per_cycle::underflows            0      0.00%      0.00% # Number of insts issued each cycle
system.switch_cpus00.iq.issued_per_cycle::0    169975842     79.41%     79.41% # Number of insts issued each cycle
system.switch_cpus00.iq.issued_per_cycle::1     13180141      6.16%     85.57% # Number of insts issued each cycle
system.switch_cpus00.iq.issued_per_cycle::2     10837834      5.06%     90.63% # Number of insts issued each cycle
system.switch_cpus00.iq.issued_per_cycle::3      4681466      2.19%     92.82% # Number of insts issued each cycle
system.switch_cpus00.iq.issued_per_cycle::4      5936643      2.77%     95.59% # Number of insts issued each cycle
system.switch_cpus00.iq.issued_per_cycle::5      5755202      2.69%     98.28% # Number of insts issued each cycle
system.switch_cpus00.iq.issued_per_cycle::6      3264550      1.53%     99.80% # Number of insts issued each cycle
system.switch_cpus00.iq.issued_per_cycle::7       257716      0.12%     99.92% # Number of insts issued each cycle
system.switch_cpus00.iq.issued_per_cycle::8       161533      0.08%    100.00% # Number of insts issued each cycle
system.switch_cpus00.iq.issued_per_cycle::overflows            0      0.00%    100.00% # Number of insts issued each cycle
system.switch_cpus00.iq.issued_per_cycle::min_value            0                       # Number of insts issued each cycle
system.switch_cpus00.iq.issued_per_cycle::max_value            8                       # Number of insts issued each cycle
system.switch_cpus00.iq.issued_per_cycle::total    214050927                       # Number of insts issued each cycle
system.switch_cpus00.iq.fu_full::No_OpClass            0      0.00%      0.00% # attempts to use FU when none available
system.switch_cpus00.iq.fu_full::IntAlu        313870     11.07%     11.07% # attempts to use FU when none available
system.switch_cpus00.iq.fu_full::IntMult            0      0.00%     11.07% # attempts to use FU when none available
system.switch_cpus00.iq.fu_full::IntDiv             0      0.00%     11.07% # attempts to use FU when none available
system.switch_cpus00.iq.fu_full::FloatAdd            0      0.00%     11.07% # attempts to use FU when none available
system.switch_cpus00.iq.fu_full::FloatCmp            0      0.00%     11.07% # attempts to use FU when none available
system.switch_cpus00.iq.fu_full::FloatCvt            0      0.00%     11.07% # attempts to use FU when none available
system.switch_cpus00.iq.fu_full::FloatMult            0      0.00%     11.07% # attempts to use FU when none available
system.switch_cpus00.iq.fu_full::FloatDiv            0      0.00%     11.07% # attempts to use FU when none available
system.switch_cpus00.iq.fu_full::FloatSqrt            0      0.00%     11.07% # attempts to use FU when none available
system.switch_cpus00.iq.fu_full::SimdAdd            0      0.00%     11.07% # attempts to use FU when none available
system.switch_cpus00.iq.fu_full::SimdAddAcc            0      0.00%     11.07% # attempts to use FU when none available
system.switch_cpus00.iq.fu_full::SimdAlu            0      0.00%     11.07% # attempts to use FU when none available
system.switch_cpus00.iq.fu_full::SimdCmp            0      0.00%     11.07% # attempts to use FU when none available
system.switch_cpus00.iq.fu_full::SimdCvt            0      0.00%     11.07% # attempts to use FU when none available
system.switch_cpus00.iq.fu_full::SimdMisc            0      0.00%     11.07% # attempts to use FU when none available
system.switch_cpus00.iq.fu_full::SimdMult            0      0.00%     11.07% # attempts to use FU when none available
system.switch_cpus00.iq.fu_full::SimdMultAcc            0      0.00%     11.07% # attempts to use FU when none available
system.switch_cpus00.iq.fu_full::SimdShift            0      0.00%     11.07% # attempts to use FU when none available
system.switch_cpus00.iq.fu_full::SimdShiftAcc            0      0.00%     11.07% # attempts to use FU when none available
system.switch_cpus00.iq.fu_full::SimdSqrt            0      0.00%     11.07% # attempts to use FU when none available
system.switch_cpus00.iq.fu_full::SimdFloatAdd            0      0.00%     11.07% # attempts to use FU when none available
system.switch_cpus00.iq.fu_full::SimdFloatAlu            0      0.00%     11.07% # attempts to use FU when none available
system.switch_cpus00.iq.fu_full::SimdFloatCmp            0      0.00%     11.07% # attempts to use FU when none available
system.switch_cpus00.iq.fu_full::SimdFloatCvt            0      0.00%     11.07% # attempts to use FU when none available
system.switch_cpus00.iq.fu_full::SimdFloatDiv            0      0.00%     11.07% # attempts to use FU when none available
system.switch_cpus00.iq.fu_full::SimdFloatMisc            0      0.00%     11.07% # attempts to use FU when none available
system.switch_cpus00.iq.fu_full::SimdFloatMult            0      0.00%     11.07% # attempts to use FU when none available
system.switch_cpus00.iq.fu_full::SimdFloatMultAcc            0      0.00%     11.07% # attempts to use FU when none available
system.switch_cpus00.iq.fu_full::SimdFloatSqrt            0      0.00%     11.07% # attempts to use FU when none available
system.switch_cpus00.iq.fu_full::MemRead      2449655     86.42%     97.49% # attempts to use FU when none available
system.switch_cpus00.iq.fu_full::MemWrite        71047      2.51%    100.00% # attempts to use FU when none available
system.switch_cpus00.iq.fu_full::IprAccess            0      0.00%    100.00% # attempts to use FU when none available
system.switch_cpus00.iq.fu_full::InstPrefetch            0      0.00%    100.00% # attempts to use FU when none available
system.switch_cpus00.iq.FU_type_0::No_OpClass            0      0.00%      0.00% # Type of FU issued
system.switch_cpus00.iq.FU_type_0::IntAlu     77846200     62.73%     62.73% # Type of FU issued
system.switch_cpus00.iq.FU_type_0::IntMult      1084255      0.87%     63.60% # Type of FU issued
system.switch_cpus00.iq.FU_type_0::IntDiv            0      0.00%     63.60% # Type of FU issued
system.switch_cpus00.iq.FU_type_0::FloatAdd            0      0.00%     63.60% # Type of FU issued
system.switch_cpus00.iq.FU_type_0::FloatCmp            0      0.00%     63.60% # Type of FU issued
system.switch_cpus00.iq.FU_type_0::FloatCvt            0      0.00%     63.60% # Type of FU issued
system.switch_cpus00.iq.FU_type_0::FloatMult            0      0.00%     63.60% # Type of FU issued
system.switch_cpus00.iq.FU_type_0::FloatDiv            0      0.00%     63.60% # Type of FU issued
system.switch_cpus00.iq.FU_type_0::FloatSqrt            0      0.00%     63.60% # Type of FU issued
system.switch_cpus00.iq.FU_type_0::SimdAdd            0      0.00%     63.60% # Type of FU issued
system.switch_cpus00.iq.FU_type_0::SimdAddAcc            0      0.00%     63.60% # Type of FU issued
system.switch_cpus00.iq.FU_type_0::SimdAlu            0      0.00%     63.60% # Type of FU issued
system.switch_cpus00.iq.FU_type_0::SimdCmp            0      0.00%     63.60% # Type of FU issued
system.switch_cpus00.iq.FU_type_0::SimdCvt            0      0.00%     63.60% # Type of FU issued
system.switch_cpus00.iq.FU_type_0::SimdMisc            0      0.00%     63.60% # Type of FU issued
system.switch_cpus00.iq.FU_type_0::SimdMult            0      0.00%     63.60% # Type of FU issued
system.switch_cpus00.iq.FU_type_0::SimdMultAcc            0      0.00%     63.60% # Type of FU issued
system.switch_cpus00.iq.FU_type_0::SimdShift            0      0.00%     63.60% # Type of FU issued
system.switch_cpus00.iq.FU_type_0::SimdShiftAcc            0      0.00%     63.60% # Type of FU issued
system.switch_cpus00.iq.FU_type_0::SimdSqrt            0      0.00%     63.60% # Type of FU issued
system.switch_cpus00.iq.FU_type_0::SimdFloatAdd            0      0.00%     63.60% # Type of FU issued
system.switch_cpus00.iq.FU_type_0::SimdFloatAlu            0      0.00%     63.60% # Type of FU issued
system.switch_cpus00.iq.FU_type_0::SimdFloatCmp            0      0.00%     63.60% # Type of FU issued
system.switch_cpus00.iq.FU_type_0::SimdFloatCvt            0      0.00%     63.60% # Type of FU issued
system.switch_cpus00.iq.FU_type_0::SimdFloatDiv            0      0.00%     63.60% # Type of FU issued
system.switch_cpus00.iq.FU_type_0::SimdFloatMisc         7432      0.01%     63.61% # Type of FU issued
system.switch_cpus00.iq.FU_type_0::SimdFloatMult            0      0.00%     63.61% # Type of FU issued
system.switch_cpus00.iq.FU_type_0::SimdFloatMultAcc            0      0.00%     63.61% # Type of FU issued
system.switch_cpus00.iq.FU_type_0::SimdFloatSqrt            0      0.00%     63.61% # Type of FU issued
system.switch_cpus00.iq.FU_type_0::MemRead     29764922     23.98%     87.59% # Type of FU issued
system.switch_cpus00.iq.FU_type_0::MemWrite     15403556     12.41%    100.00% # Type of FU issued
system.switch_cpus00.iq.FU_type_0::IprAccess            0      0.00%    100.00% # Type of FU issued
system.switch_cpus00.iq.FU_type_0::InstPrefetch            0      0.00%    100.00% # Type of FU issued
system.switch_cpus00.iq.FU_type_0::total    124106365                       # Type of FU issued
system.switch_cpus00.iq.rate                 0.551242                       # Inst issue rate
system.switch_cpus00.iq.fu_busy_cnt           2834572                       # FU busy when requested
system.switch_cpus00.iq.fu_busy_rate         0.022840                       # FU busy rate (busy events/executed inst)
system.switch_cpus00.iq.int_inst_queue_reads    465162580                       # Number of integer instruction queue reads
system.switch_cpus00.iq.int_inst_queue_writes    138953128                       # Number of integer instruction queue writes
system.switch_cpus00.iq.int_inst_queue_wakeup_accesses    123049362                       # Number of integer instruction queue wakeup accesses
system.switch_cpus00.iq.fp_inst_queue_reads            0                       # Number of floating instruction queue reads
system.switch_cpus00.iq.fp_inst_queue_writes            0                       # Number of floating instruction queue writes
system.switch_cpus00.iq.fp_inst_queue_wakeup_accesses            0                       # Number of floating instruction queue wakeup accesses
system.switch_cpus00.iq.int_alu_accesses    126940937                       # Number of integer alu accesses
system.switch_cpus00.iq.fp_alu_accesses             0                       # Number of floating point alu accesses
system.switch_cpus00.iew.lsq.thread0.forwLoads       222879                       # Number of loads that had data forwarded from stores
system.switch_cpus00.iew.lsq.thread0.invAddrLoads            0                       # Number of loads ignored due to an invalid address
system.switch_cpus00.iew.lsq.thread0.squashedLoads      1163996                       # Number of loads squashed
system.switch_cpus00.iew.lsq.thread0.ignoredResponses          494                       # Number of memory responses ignored because the instruction is squashed
system.switch_cpus00.iew.lsq.thread0.memOrderViolation         3161                       # Number of memory ordering violations
system.switch_cpus00.iew.lsq.thread0.squashedStores        91641                       # Number of stores squashed
system.switch_cpus00.iew.lsq.thread0.invAddrSwpfs            0                       # Number of software prefetches ignored due to an invalid address
system.switch_cpus00.iew.lsq.thread0.blockedLoads            0                       # Number of blocked loads due to partial load-store forwarding
system.switch_cpus00.iew.lsq.thread0.rescheduledLoads        11002                       # Number of loads that were rescheduled
system.switch_cpus00.iew.lsq.thread0.cacheBlocked            0                       # Number of times an access to memory failed due to the cache being blocked
system.switch_cpus00.iew.iewIdleCycles              0                       # Number of cycles IEW is idle
system.switch_cpus00.iew.iewSquashCycles      1942669                       # Number of cycles IEW is squashing
system.switch_cpus00.iew.iewBlockCycles       3567365                       # Number of cycles IEW is blocking
system.switch_cpus00.iew.iewUnblockCycles       163567                       # Number of cycles IEW is unblocking
system.switch_cpus00.iew.iewDispatchedInsts    129056533                       # Number of instructions dispatched to IQ
system.switch_cpus00.iew.iewDispSquashedInsts         1409                       # Number of squashed instructions skipped by dispatch
system.switch_cpus00.iew.iewDispLoadInsts     30512039                       # Number of dispatched load instructions
system.switch_cpus00.iew.iewDispStoreInsts     15436977                       # Number of dispatched store instructions
system.switch_cpus00.iew.iewDispNonSpecInsts         7565                       # Number of dispatched non-speculative instructions
system.switch_cpus00.iew.iewIQFullEvents       111745                       # Number of times the IQ has become full, causing a stall
system.switch_cpus00.iew.iewLSQFullEvents           74                       # Number of times the LSQ has become full, causing a stall
system.switch_cpus00.iew.memOrderViolationEvents         3161                       # Number of memory order violations
system.switch_cpus00.iew.predictedTakenIncorrect       536453                       # Number of branches that were predicted taken incorrectly
system.switch_cpus00.iew.predictedNotTakenIncorrect       542031                       # Number of branches that were predicted not taken incorrectly
system.switch_cpus00.iew.branchMispredicts      1078484                       # Number of branch mispredicts detected at execute
system.switch_cpus00.iew.iewExecutedInsts    123239282                       # Number of executed instructions
system.switch_cpus00.iew.iewExecLoadInsts     29663741                       # Number of load instructions executed
system.switch_cpus00.iew.iewExecSquashedInsts       867083                       # Number of squashed instructions skipped in execute
system.switch_cpus00.iew.exec_swp                   0                       # number of swp insts executed
system.switch_cpus00.iew.exec_nop                  76                       # number of nop insts executed
system.switch_cpus00.iew.exec_refs           45066028                       # number of memory reference insts executed
system.switch_cpus00.iew.exec_branches       16146737                       # Number of branches executed
system.switch_cpus00.iew.exec_stores         15402287                       # Number of stores executed
system.switch_cpus00.iew.exec_rate           0.547391                       # Inst execution rate
system.switch_cpus00.iew.wb_sent            123053364                       # cumulative count of insts sent to commit
system.switch_cpus00.iew.wb_count           123049362                       # cumulative count of insts written-back
system.switch_cpus00.iew.wb_producers        66446583                       # num instructions producing a value
system.switch_cpus00.iew.wb_consumers       130886450                       # num instructions consuming a value
system.switch_cpus00.iew.wb_penalized               0                       # number of instrctions required to write to 'other' IQ
system.switch_cpus00.iew.wb_rate             0.546547                       # insts written-back per cycle
system.switch_cpus00.iew.wb_fanout           0.507666                       # average fanout of values written-back
system.switch_cpus00.iew.wb_penalized_rate            0                       # fraction of instructions written-back that wrote to 'other' IQ
system.switch_cpus00.commit.commitCommittedInsts    100000000                       # The number of committed instructions
system.switch_cpus00.commit.commitCommittedOps    117516368                       # The number of committed instructions
system.switch_cpus00.commit.commitSquashedInsts     11553129                       # The number of squashed insts skipped by commit
system.switch_cpus00.commit.commitNonSpecStalls        14979                       # The number of times commit has been forced to stall to communicate backwards
system.switch_cpus00.commit.branchMispredicts       939388                       # The number of times a branch was mispredicted
system.switch_cpus00.commit.committed_per_cycle::samples    212108258                       # Number of insts commited each cycle
system.switch_cpus00.commit.committed_per_cycle::mean     0.554040                       # Number of insts commited each cycle
system.switch_cpus00.commit.committed_per_cycle::stdev     1.377808                       # Number of insts commited each cycle
system.switch_cpus00.commit.committed_per_cycle::underflows            0      0.00%      0.00% # Number of insts commited each cycle
system.switch_cpus00.commit.committed_per_cycle::0    169512083     79.92%     79.92% # Number of insts commited each cycle
system.switch_cpus00.commit.committed_per_cycle::1     15530532      7.32%     87.24% # Number of insts commited each cycle
system.switch_cpus00.commit.committed_per_cycle::2      7291524      3.44%     90.68% # Number of insts commited each cycle
system.switch_cpus00.commit.committed_per_cycle::3      7212366      3.40%     94.08% # Number of insts commited each cycle
system.switch_cpus00.commit.committed_per_cycle::4      1960207      0.92%     95.00% # Number of insts commited each cycle
system.switch_cpus00.commit.committed_per_cycle::5      8392400      3.96%     98.96% # Number of insts commited each cycle
system.switch_cpus00.commit.committed_per_cycle::6       626654      0.30%     99.25% # Number of insts commited each cycle
system.switch_cpus00.commit.committed_per_cycle::7       456998      0.22%     99.47% # Number of insts commited each cycle
system.switch_cpus00.commit.committed_per_cycle::8      1125494      0.53%    100.00% # Number of insts commited each cycle
system.switch_cpus00.commit.committed_per_cycle::overflows            0      0.00%    100.00% # Number of insts commited each cycle
system.switch_cpus00.commit.committed_per_cycle::min_value            0                       # Number of insts commited each cycle
system.switch_cpus00.commit.committed_per_cycle::max_value            8                       # Number of insts commited each cycle
system.switch_cpus00.commit.committed_per_cycle::total    212108258                       # Number of insts commited each cycle
system.switch_cpus00.commit.committedInsts    100000000                       # Number of instructions committed
system.switch_cpus00.commit.committedOps    117516368                       # Number of ops (including micro ops) committed
system.switch_cpus00.commit.swp_count               0                       # Number of s/w prefetches committed
system.switch_cpus00.commit.refs             44693368                       # Number of memory references committed
system.switch_cpus00.commit.loads            29348035                       # Number of loads committed
system.switch_cpus00.commit.membars              7478                       # Number of memory barriers committed
system.switch_cpus00.commit.branches         15518718                       # Number of branches committed
system.switch_cpus00.commit.fp_insts                0                       # Number of committed floating point instructions.
system.switch_cpus00.commit.int_insts       104500046                       # Number of committed integer instructions.
system.switch_cpus00.commit.function_calls      1138202                       # Number of function calls committed.
system.switch_cpus00.commit.bw_lim_events      1125494                       # number cycles where commit BW limit reached
system.switch_cpus00.commit.bw_limited              0                       # number of insts not committed due to BW limits
system.switch_cpus00.rob.rob_reads          340051962                       # The number of ROB reads
system.switch_cpus00.rob.rob_writes         260081882                       # The number of ROB writes
system.switch_cpus00.timesIdled               4077731                       # Number of times that the entire CPU went into an idle state and unscheduled itself
system.switch_cpus00.idleCycles              11088563                       # Total number of cycles that the CPU has spent unscheduled due to idling
system.switch_cpus00.committedInsts         100000000                       # Number of Instructions Simulated
system.switch_cpus00.committedOps           117516368                       # Number of Ops (including micro ops) Simulated
system.switch_cpus00.committedInsts_total    100000000                       # Number of Instructions Simulated
system.switch_cpus00.cpi                     2.251395                       # CPI: Cycles Per Instruction
system.switch_cpus00.cpi_total               2.251395                       # CPI: Total CPI of All Threads
system.switch_cpus00.ipc                     0.444169                       # IPC: Instructions Per Cycle
system.switch_cpus00.ipc_total               0.444169                       # IPC: Total IPC of All Threads
system.switch_cpus00.int_regfile_reads      609284873                       # number of integer regfile reads
system.switch_cpus00.int_regfile_writes     142884503                       # number of integer regfile writes
system.switch_cpus00.misc_regfile_reads     154066364                       # number of misc regfile reads
system.switch_cpus00.misc_regfile_writes        14956                       # number of misc regfile writes
system.switch_cpus01.dtb.inst_hits                  0                       # ITB inst hits
system.switch_cpus01.dtb.inst_misses                0                       # ITB inst misses
system.switch_cpus01.dtb.read_hits                  0                       # DTB read hits
system.switch_cpus01.dtb.read_misses                0                       # DTB read misses
system.switch_cpus01.dtb.write_hits                 0                       # DTB write hits
system.switch_cpus01.dtb.write_misses               0                       # DTB write misses
system.switch_cpus01.dtb.flush_tlb                  0                       # Number of times complete TLB was flushed
system.switch_cpus01.dtb.flush_tlb_mva              0                       # Number of times TLB was flushed by MVA
system.switch_cpus01.dtb.flush_tlb_mva_asid            0                       # Number of times TLB was flushed by MVA & ASID
system.switch_cpus01.dtb.flush_tlb_asid             0                       # Number of times TLB was flushed by ASID
system.switch_cpus01.dtb.flush_entries              0                       # Number of entries that have been flushed from TLB
system.switch_cpus01.dtb.align_faults               0                       # Number of TLB faults due to alignment restrictions
system.switch_cpus01.dtb.prefetch_faults            0                       # Number of TLB faults due to prefetch
system.switch_cpus01.dtb.domain_faults              0                       # Number of TLB faults due to domain restrictions
system.switch_cpus01.dtb.perms_faults               0                       # Number of TLB faults due to permissions restrictions
system.switch_cpus01.dtb.read_accesses              0                       # DTB read accesses
system.switch_cpus01.dtb.write_accesses             0                       # DTB write accesses
system.switch_cpus01.dtb.inst_accesses              0                       # ITB inst accesses
system.switch_cpus01.dtb.hits                       0                       # DTB hits
system.switch_cpus01.dtb.misses                     0                       # DTB misses
system.switch_cpus01.dtb.accesses                   0                       # DTB accesses
[...]
system.cpu15.icache.demand_avg_miss_latency::total 151365.978261                       # average overall miss latency
system.cpu15.icache.overall_avg_miss_latency::switch_cpus15.inst 151365.978261                       # average overall miss latency
system.cpu15.icache.overall_avg_miss_latency::total 151365.978261                       # average overall miss latency
system.cpu15.icache.blocked_cycles::no_mshrs            0                       # number of cycles access was blocked
system.cpu15.icache.blocked_cycles::no_targets            0                       # number of cycles access was blocked
system.cpu15.icache.blocked::no_mshrs               0                       # number of cycles access was blocked
system.cpu15.icache.blocked::no_targets             0                       # number of cycles access was blocked
system.cpu15.icache.avg_blocked_cycles::no_mshrs          nan                       # average number of cycles each access was blocked
system.cpu15.icache.avg_blocked_cycles::no_targets          nan                       # average number of cycles each access was blocked
system.cpu15.icache.fast_writes                     0                       # number of fast writes performed
system.cpu15.icache.cache_copies                    0                       # number of cache copies performed
system.cpu15.icache.ReadReq_mshr_hits::switch_cpus15.inst            9                       # number of ReadReq MSHR hits
system.cpu15.icache.ReadReq_mshr_hits::total            9                       # number of ReadReq MSHR hits
system.cpu15.icache.demand_mshr_hits::switch_cpus15.inst            9                       # number of demand (read+write) MSHR hits
system.cpu15.icache.demand_mshr_hits::total            9                       # number of demand (read+write) MSHR hits
system.cpu15.icache.overall_mshr_hits::switch_cpus15.inst            9                       # number of overall MSHR hits
system.cpu15.icache.overall_mshr_hits::total            9                       # number of overall MSHR hits
system.cpu15.icache.ReadReq_mshr_misses::switch_cpus15.inst           37                       # number of ReadReq MSHR misses
system.cpu15.icache.ReadReq_mshr_misses::total           37                       # number of ReadReq MSHR misses
system.cpu15.icache.demand_mshr_misses::switch_cpus15.inst           37                       # number of demand (read+write) MSHR misses
system.cpu15.icache.demand_mshr_misses::total           37                       # number of demand (read+write) MSHR misses
system.cpu15.icache.overall_mshr_misses::switch_cpus15.inst           37                       # number of overall MSHR misses
system.cpu15.icache.overall_mshr_misses::total           37                       # number of overall MSHR misses
system.cpu15.icache.ReadReq_mshr_miss_latency::switch_cpus15.inst      5877595                       # number of ReadReq MSHR miss cycles
system.cpu15.icache.ReadReq_mshr_miss_latency::total      5877595                       # number of ReadReq MSHR miss cycles
system.cpu15.icache.demand_mshr_miss_latency::switch_cpus15.inst      5877595                       # number of demand (read+write) MSHR miss cycles
system.cpu15.icache.demand_mshr_miss_latency::total      5877595                       # number of demand (read+write) MSHR miss cycles
system.cpu15.icache.overall_mshr_miss_latency::switch_cpus15.inst      5877595                       # number of overall MSHR miss cycles
system.cpu15.icache.overall_mshr_miss_latency::total      5877595                       # number of overall MSHR miss cycles
system.cpu15.icache.ReadReq_mshr_miss_rate::switch_cpus15.inst     0.000003                       # mshr miss rate for ReadReq accesses
system.cpu15.icache.ReadReq_mshr_miss_rate::total     0.000003                       # mshr miss rate for ReadReq accesses
system.cpu15.icache.demand_mshr_miss_rate::switch_cpus15.inst     0.000003                       # mshr miss rate for demand accesses
system.cpu15.icache.demand_mshr_miss_rate::total     0.000003                       # mshr miss rate for demand accesses
system.cpu15.icache.overall_mshr_miss_rate::switch_cpus15.inst     0.000003                       # mshr miss rate for overall accesses
system.cpu15.icache.overall_mshr_miss_rate::total     0.000003                       # mshr miss rate for overall accesses
system.cpu15.icache.ReadReq_avg_mshr_miss_latency::switch_cpus15.inst 158853.918919                       # average ReadReq mshr miss latency
system.cpu15.icache.ReadReq_avg_mshr_miss_latency::total 158853.918919                       # average ReadReq mshr miss latency
system.cpu15.icache.demand_avg_mshr_miss_latency::switch_cpus15.inst 158853.918919                       # average overall mshr miss latency
system.cpu15.icache.demand_avg_mshr_miss_latency::total 158853.918919                       # average overall mshr miss latency
system.cpu15.icache.overall_avg_mshr_miss_latency::switch_cpus15.inst 158853.918919                       # average overall mshr miss latency
system.cpu15.icache.overall_avg_mshr_miss_latency::total 158853.918919                       # average overall mshr miss latency
system.cpu15.icache.no_allocate_misses              0                       # Number of misses that were no-allocate
system.cpu15.dcache.replacements                49249                       # number of replacements
system.cpu15.dcache.tagsinuse                     256                       # Cycle average of tags in use
system.cpu15.dcache.total_refs              216594638                       # Total number of references to valid blocks.
system.cpu15.dcache.sampled_refs                49505                       # Sample count of references to valid blocks.
system.cpu15.dcache.avg_refs              4375.207312                       # Average number of references to valid blocks.
system.cpu15.dcache.warmup_cycle                    0                       # Cycle when the warmup percentage was hit.
system.cpu15.dcache.occ_blocks::switch_cpus15.data   200.150086                       # Average occupied blocks per requestor
system.cpu15.dcache.occ_blocks::cpu15.data    55.849914                       # Average occupied blocks per requestor
system.cpu15.dcache.occ_percent::switch_cpus15.data     0.781836                       # Average percentage of cache occupancy
system.cpu15.dcache.occ_percent::cpu15.data     0.218164                       # Average percentage of cache occupancy
system.cpu15.dcache.occ_percent::total              1                       # Average percentage of cache occupancy
system.cpu15.dcache.ReadReq_hits::switch_cpus15.data     16081146                       # number of ReadReq hits
system.cpu15.dcache.ReadReq_hits::total      16081146                       # number of ReadReq hits
system.cpu15.dcache.WriteReq_hits::switch_cpus15.data      3087806                       # number of WriteReq hits
system.cpu15.dcache.WriteReq_hits::total      3087806                       # number of WriteReq hits
system.cpu15.dcache.LoadLockedReq_hits::switch_cpus15.data         7292                       # number of LoadLockedReq hits
system.cpu15.dcache.LoadLockedReq_hits::total         7292                       # number of LoadLockedReq hits
system.cpu15.dcache.StoreCondReq_hits::switch_cpus15.data         7244                       # number of StoreCondReq hits
system.cpu15.dcache.StoreCondReq_hits::total         7244                       # number of StoreCondReq hits
system.cpu15.dcache.demand_hits::switch_cpus15.data     19168952                       # number of demand (read+write) hits
system.cpu15.dcache.demand_hits::total       19168952                       # number of demand (read+write) hits
system.cpu15.dcache.overall_hits::switch_cpus15.data     19168952                       # number of overall hits
system.cpu15.dcache.overall_hits::total      19168952                       # number of overall hits
system.cpu15.dcache.ReadReq_misses::switch_cpus15.data       172122                       # number of ReadReq misses
system.cpu15.dcache.ReadReq_misses::total       172122                       # number of ReadReq misses
system.cpu15.dcache.WriteReq_misses::switch_cpus15.data          306                       # number of WriteReq misses
system.cpu15.dcache.WriteReq_misses::total          306                       # number of WriteReq misses
system.cpu15.dcache.demand_misses::switch_cpus15.data       172428                       # number of demand (read+write) misses
system.cpu15.dcache.demand_misses::total       172428                       # number of demand (read+write) misses
system.cpu15.dcache.overall_misses::switch_cpus15.data       172428                       # number of overall misses
system.cpu15.dcache.overall_misses::total       172428                       # number of overall misses
system.cpu15.dcache.ReadReq_miss_latency::switch_cpus15.data  19524468682                       # number of ReadReq miss cycles
system.cpu15.dcache.ReadReq_miss_latency::total  19524468682                       # number of ReadReq miss cycles
system.cpu15.dcache.WriteReq_miss_latency::switch_cpus15.data     27255388                       # number of WriteReq miss cycles
system.cpu15.dcache.WriteReq_miss_latency::total     27255388                       # number of WriteReq miss cycles
system.cpu15.dcache.demand_miss_latency::switch_cpus15.data  19551724070                       # number of demand (read+write) miss cycles
system.cpu15.dcache.demand_miss_latency::total  19551724070                       # number of demand (read+write) miss cycles
system.cpu15.dcache.overall_miss_latency::switch_cpus15.data  19551724070                       # number of overall miss cycles
system.cpu15.dcache.overall_miss_latency::total  19551724070                       # number of overall miss cycles
system.cpu15.dcache.ReadReq_accesses::switch_cpus15.data     16253268                       # number of ReadReq accesses(hits+misses)
system.cpu15.dcache.ReadReq_accesses::total     16253268                       # number of ReadReq accesses(hits+misses)
system.cpu15.dcache.WriteReq_accesses::switch_cpus15.data      3088112                       # number of WriteReq accesses(hits+misses)
system.cpu15.dcache.WriteReq_accesses::total      3088112                       # number of WriteReq accesses(hits+misses)
system.cpu15.dcache.LoadLockedReq_accesses::switch_cpus15.data         7292                       # number of LoadLockedReq accesses(hits+misses)
system.cpu15.dcache.LoadLockedReq_accesses::total         7292                       # number of LoadLockedReq accesses(hits+misses)
system.cpu15.dcache.StoreCondReq_accesses::switch_cpus15.data         7244                       # number of StoreCondReq accesses(hits+misses)
system.cpu15.dcache.StoreCondReq_accesses::total         7244                       # number of StoreCondReq accesses(hits+misses)
system.cpu15.dcache.demand_accesses::switch_cpus15.data     19341380                       # number of demand (read+write) accesses
system.cpu15.dcache.demand_accesses::total     19341380                       # number of demand (read+write) accesses
system.cpu15.dcache.overall_accesses::switch_cpus15.data     19341380                       # number of overall (read+write) accesses
system.cpu15.dcache.overall_accesses::total     19341380                       # number of overall (read+write) accesses
system.cpu15.dcache.ReadReq_miss_rate::switch_cpus15.data     0.010590                       # miss rate for ReadReq accesses
system.cpu15.dcache.ReadReq_miss_rate::total     0.010590                       # miss rate for ReadReq accesses
system.cpu15.dcache.WriteReq_miss_rate::switch_cpus15.data     0.000099                       # miss rate for WriteReq accesses
system.cpu15.dcache.WriteReq_miss_rate::total     0.000099                       # miss rate for WriteReq accesses
system.cpu15.dcache.demand_miss_rate::switch_cpus15.data     0.008915                       # miss rate for demand accesses
system.cpu15.dcache.demand_miss_rate::total     0.008915                       # miss rate for demand accesses
system.cpu15.dcache.overall_miss_rate::switch_cpus15.data     0.008915                       # miss rate for overall accesses
system.cpu15.dcache.overall_miss_rate::total     0.008915                       # miss rate for overall accesses
system.cpu15.dcache.ReadReq_avg_miss_latency::switch_cpus15.data 113433.893878                       # average ReadReq miss latency
system.cpu15.dcache.ReadReq_avg_miss_latency::total 113433.893878                       # average ReadReq miss latency
system.cpu15.dcache.WriteReq_avg_miss_latency::switch_cpus15.data 89069.895425                       # average WriteReq miss latency
system.cpu15.dcache.WriteReq_avg_miss_latency::total 89069.895425                       # average WriteReq miss latency
system.cpu15.dcache.demand_avg_miss_latency::switch_cpus15.data 113390.656216                       # average overall miss latency
system.cpu15.dcache.demand_avg_miss_latency::total 113390.656216                       # average overall miss latency
system.cpu15.dcache.overall_avg_miss_latency::switch_cpus15.data 113390.656216                       # average overall miss latency
system.cpu15.dcache.overall_avg_miss_latency::total 113390.656216                       # average overall miss latency
system.cpu15.dcache.blocked_cycles::no_mshrs            0                       # number of cycles access was blocked
system.cpu15.dcache.blocked_cycles::no_targets            0                       # number of cycles access was blocked
system.cpu15.dcache.blocked::no_mshrs               0                       # number of cycles access was blocked
system.cpu15.dcache.blocked::no_targets             0                       # number of cycles access was blocked
system.cpu15.dcache.avg_blocked_cycles::no_mshrs          nan                       # average number of cycles each access was blocked
system.cpu15.dcache.avg_blocked_cycles::no_targets          nan                       # average number of cycles each access was blocked
system.cpu15.dcache.fast_writes                     0                       # number of fast writes performed
system.cpu15.dcache.cache_copies                    0                       # number of cache copies performed
system.cpu15.dcache.writebacks::writebacks         5784                       # number of writebacks
system.cpu15.dcache.writebacks::total            5784                       # number of writebacks
system.cpu15.dcache.ReadReq_mshr_hits::switch_cpus15.data       122936                       # number of ReadReq MSHR hits
system.cpu15.dcache.ReadReq_mshr_hits::total       122936                       # number of ReadReq MSHR hits
system.cpu15.dcache.WriteReq_mshr_hits::switch_cpus15.data          243                       # number of WriteReq MSHR hits
system.cpu15.dcache.WriteReq_mshr_hits::total          243                       # number of WriteReq MSHR hits
system.cpu15.dcache.demand_mshr_hits::switch_cpus15.data       123179                       # number of demand (read+write) MSHR hits
system.cpu15.dcache.demand_mshr_hits::total       123179                       # number of demand (read+write) MSHR hits
system.cpu15.dcache.overall_mshr_hits::switch_cpus15.data       123179                       # number of overall MSHR hits
system.cpu15.dcache.overall_mshr_hits::total       123179                       # number of overall MSHR hits
system.cpu15.dcache.ReadReq_mshr_misses::switch_cpus15.data        49186                       # number of ReadReq MSHR misses
system.cpu15.dcache.ReadReq_mshr_misses::total        49186                       # number of ReadReq MSHR misses
system.cpu15.dcache.WriteReq_mshr_misses::switch_cpus15.data           63                       # number of WriteReq MSHR misses
system.cpu15.dcache.WriteReq_mshr_misses::total           63                       # number of WriteReq MSHR misses
system.cpu15.dcache.demand_mshr_misses::switch_cpus15.data        49249                       # number of demand (read+write) MSHR misses
system.cpu15.dcache.demand_mshr_misses::total        49249                       # number of demand (read+write) MSHR misses
system.cpu15.dcache.overall_mshr_misses::switch_cpus15.data        49249                       # number of overall MSHR misses
system.cpu15.dcache.overall_mshr_misses::total        49249                       # number of overall MSHR misses
system.cpu15.dcache.ReadReq_mshr_miss_latency::switch_cpus15.data   5129820490                       # number of ReadReq MSHR miss cycles
system.cpu15.dcache.ReadReq_mshr_miss_latency::total   5129820490                       # number of ReadReq MSHR miss cycles
system.cpu15.dcache.WriteReq_mshr_miss_latency::switch_cpus15.data      4367693                       # number of WriteReq MSHR miss cycles
system.cpu15.dcache.WriteReq_mshr_miss_latency::total      4367693                       # number of WriteReq MSHR miss cycles
system.cpu15.dcache.demand_mshr_miss_latency::switch_cpus15.data   5134188183                       # number of demand (read+write) MSHR miss cycles
system.cpu15.dcache.demand_mshr_miss_latency::total   5134188183                       # number of demand (read+write) MSHR miss cycles
system.cpu15.dcache.overall_mshr_miss_latency::switch_cpus15.data   5134188183                       # number of overall MSHR miss cycles
system.cpu15.dcache.overall_mshr_miss_latency::total   5134188183                       # number of overall MSHR miss cycles
system.cpu15.dcache.ReadReq_mshr_miss_rate::switch_cpus15.data     0.003026                       # mshr miss rate for ReadReq accesses
system.cpu15.dcache.ReadReq_mshr_miss_rate::total     0.003026                       # mshr miss rate for ReadReq accesses
system.cpu15.dcache.WriteReq_mshr_miss_rate::switch_cpus15.data     0.000020                       # mshr miss rate for WriteReq accesses
system.cpu15.dcache.WriteReq_mshr_miss_rate::total     0.000020                       # mshr miss rate for WriteReq accesses
system.cpu15.dcache.demand_mshr_miss_rate::switch_cpus15.data     0.002546                       # mshr miss rate for demand accesses
system.cpu15.dcache.demand_mshr_miss_rate::total     0.002546                       # mshr miss rate for demand accesses
system.cpu15.dcache.overall_mshr_miss_rate::switch_cpus15.data     0.002546                       # mshr miss rate for overall accesses
system.cpu15.dcache.overall_mshr_miss_rate::total     0.002546                       # mshr miss rate for overall accesses
system.cpu15.dcache.ReadReq_avg_mshr_miss_latency::switch_cpus15.data 104294.321352                       # average ReadReq mshr miss latency
system.cpu15.dcache.ReadReq_avg_mshr_miss_latency::total 104294.321352                       # average ReadReq mshr miss latency
system.cpu15.dcache.WriteReq_avg_mshr_miss_latency::switch_cpus15.data 69328.460317                       # average WriteReq mshr miss latency
system.cpu15.dcache.WriteReq_avg_mshr_miss_latency::total 69328.460317                       # average WriteReq mshr miss latency
system.cpu15.dcache.demand_avg_mshr_miss_latency::switch_cpus15.data 104249.592540                       # average overall mshr miss latency
system.cpu15.dcache.demand_avg_mshr_miss_latency::total 104249.592540                       # average overall mshr miss latency
system.cpu15.dcache.overall_avg_mshr_miss_latency::switch_cpus15.data 104249.592540                       # average overall mshr miss latency
system.cpu15.dcache.overall_avg_mshr_miss_latency::total 104249.592540                       # average overall mshr miss latency
system.cpu15.dcache.no_allocate_misses              0                       # Number of misses that were no-allocate

---------- End Simulation Statistics   ----------
