
---------- Begin Simulation Statistics ----------
sim_seconds                                  0.099302                       # Number of seconds simulated
sim_ticks                                 99301932627                       # Number of ticks simulated
final_tick                               627378642129                       # Number of ticks from beginning of simulation (restored from checkpoints and never reset)
sim_freq                                 1000000000000                       # Frequency of simulated ticks
host_inst_rate                                 159911                       # Simulator instruction rate (inst/s)
host_op_rate                                   202018                       # Simulator op (including micro ops) rate (op/s)
host_tick_rate                                4822558                       # Simulator tick rate (ticks/s)
host_mem_usage                               16907544                       # Number of bytes of host memory used
host_seconds                                 20591.13                       # Real time elapsed on the host
sim_insts                                  3292757364                       # Number of instructions simulated
sim_ops                                    4159776765                       # Number of ops (including micro ops) simulated
system.physmem.bytes_read::switch_cpus0.inst         1792                       # Number of bytes read from this memory
system.physmem.bytes_read::switch_cpus0.data       582528                       # Number of bytes read from this memory
system.physmem.bytes_read::switch_cpus1.inst         1664                       # Number of bytes read from this memory
system.physmem.bytes_read::switch_cpus1.data      2389504                       # Number of bytes read from this memory
system.physmem.bytes_read::switch_cpus2.inst         1408                       # Number of bytes read from this memory
system.physmem.bytes_read::switch_cpus2.data      1868800                       # Number of bytes read from this memory
system.physmem.bytes_read::total              4845696                       # Number of bytes read from this memory
system.physmem.bytes_inst_read::switch_cpus0.inst         1792                       # Number of instructions bytes read from this memory
system.physmem.bytes_inst_read::switch_cpus1.inst         1664                       # Number of instructions bytes read from this memory
system.physmem.bytes_inst_read::switch_cpus2.inst         1408                       # Number of instructions bytes read from this memory
system.physmem.bytes_inst_read::total            4864                       # Number of instructions bytes read from this memory
system.physmem.bytes_written::writebacks      1366016                       # Number of bytes written to this memory
system.physmem.bytes_written::total           1366016                       # Number of bytes written to this memory
system.physmem.num_reads::switch_cpus0.inst           14                       # Number of read requests responded to by this memory
system.physmem.num_reads::switch_cpus0.data         4551                       # Number of read requests responded to by this memory
system.physmem.num_reads::switch_cpus1.inst           13                       # Number of read requests responded to by this memory
system.physmem.num_reads::switch_cpus1.data        18668                       # Number of read requests responded to by this memory
system.physmem.num_reads::switch_cpus2.inst           11                       # Number of read requests responded to by this memory
system.physmem.num_reads::switch_cpus2.data        14600                       # Number of read requests responded to by this memory
system.physmem.num_reads::total                 37857                       # Number of read requests responded to by this memory
system.physmem.num_writes::writebacks           10672                       # Number of write requests responded to by this memory
system.physmem.num_writes::functional               0                       # Number of write requests responded to by this memory
system.physmem.num_writes::interrupt                0                       # Number of write requests responded to by this memory
system.physmem.num_writes::switch_cpus0.dtb.walker            0                       # Number of write requests responded to by this memory
system.physmem.num_writes::switch_cpus0.itb.walker            0                       # Number of write requests responded to by this memory
system.physmem.num_writes::switch_cpus0.inst            0                       # Number of write requests responded to by this memory
system.physmem.num_writes::switch_cpus0.data            0                       # Number of write requests responded to by this memory
system.physmem.num_writes::switch_cpus1.dtb.walker            0                       # Number of write requests responded to by this memory
system.physmem.num_writes::switch_cpus1.itb.walker            0                       # Number of write requests responded to by this memory
system.physmem.num_writes::switch_cpus1.inst            0                       # Number of write requests responded to by this memory
system.physmem.num_writes::switch_cpus1.data            0                       # Number of write requests responded to by this memory
system.physmem.num_writes::switch_cpus2.dtb.walker            0                       # Number of write requests responded to by this memory
system.physmem.num_writes::switch_cpus2.itb.walker            0                       # Number of write requests responded to by this memory
system.physmem.num_writes::switch_cpus2.inst            0                       # Number of write requests responded to by this memory
system.physmem.num_writes::switch_cpus2.data            0                       # Number of write requests responded to by this memory
system.physmem.num_writes::cpu0.dtb.walker            0                       # Number of write requests responded to by this memory
system.physmem.num_writes::cpu0.itb.walker            0                       # Number of write requests responded to by this memory
system.physmem.num_writes::cpu0.inst                0                       # Number of write requests responded to by this memory
system.physmem.num_writes::cpu0.data                0                       # Number of write requests responded to by this memory
system.physmem.num_writes::cpu1.dtb.walker            0                       # Number of write requests responded to by this memory
system.physmem.num_writes::cpu1.itb.walker            0                       # Number of write requests responded to by this memory
system.physmem.num_writes::cpu1.inst                0                       # Number of write requests responded to by this memory
system.physmem.num_writes::cpu1.data                0                       # Number of write requests responded to by this memory
system.physmem.num_writes::cpu2.dtb.walker            0                       # Number of write requests responded to by this memory
system.physmem.num_writes::cpu2.itb.walker            0                       # Number of write requests responded to by this memory
system.physmem.num_writes::cpu2.inst                0                       # Number of write requests responded to by this memory
system.physmem.num_writes::cpu2.data                0                       # Number of write requests responded to by this memory
system.physmem.num_writes::total                10672                       # Number of write requests responded to by this memory
system.physmem.bw_read::switch_cpus0.inst        18046                       # Total read bandwidth from this memory (bytes/s)
system.physmem.bw_read::switch_cpus0.data      5866230                       # Total read bandwidth from this memory (bytes/s)
system.physmem.bw_read::switch_cpus1.inst        16757                       # Total read bandwidth from this memory (bytes/s)
system.physmem.bw_read::switch_cpus1.data     24063016                       # Total read bandwidth from this memory (bytes/s)
system.physmem.bw_read::switch_cpus2.inst        14179                       # Total read bandwidth from this memory (bytes/s)
system.physmem.bw_read::switch_cpus2.data     18819372                       # Total read bandwidth from this memory (bytes/s)
system.physmem.bw_read::total                48797600                       # Total read bandwidth from this memory (bytes/s)
system.physmem.bw_inst_read::switch_cpus0.inst        18046                       # Instruction read bandwidth from this memory (bytes/s)
system.physmem.bw_inst_read::switch_cpus1.inst        16757                       # Instruction read bandwidth from this memory (bytes/s)
system.physmem.bw_inst_read::switch_cpus2.inst        14179                       # Instruction read bandwidth from this memory (bytes/s)
system.physmem.bw_inst_read::total              48982                       # Instruction read bandwidth from this memory (bytes/s)
system.physmem.bw_write::writebacks          13756187                       # Write bandwidth from this memory (bytes/s)
system.physmem.bw_write::total               13756187                       # Write bandwidth from this memory (bytes/s)
system.physmem.bw_total::writebacks          13756187                       # Total bandwidth to/from this memory (bytes/s)
system.physmem.bw_total::switch_cpus0.inst        18046                       # Total bandwidth to/from this memory (bytes/s)
system.physmem.bw_total::switch_cpus0.data      5866230                       # Total bandwidth to/from this memory (bytes/s)
system.physmem.bw_total::switch_cpus1.inst        16757                       # Total bandwidth to/from this memory (bytes/s)
system.physmem.bw_total::switch_cpus1.data     24063016                       # Total bandwidth to/from this memory (bytes/s)
system.physmem.bw_total::switch_cpus2.inst        14179                       # Total bandwidth to/from this memory (bytes/s)
system.physmem.bw_total::switch_cpus2.data     18819372                       # Total bandwidth to/from this memory (bytes/s)
system.physmem.bw_total::total               62553788                       # Total bandwidth to/from this memory (bytes/s)
system.switch_cpus0.dtb.inst_hits                   0                       # ITB inst hits
system.switch_cpus0.dtb.inst_misses                 0                       # ITB inst misses
system.switch_cpus0.dtb.read_hits                   0                       # DTB read hits
system.switch_cpus0.dtb.read_misses                 0                       # DTB read misses
system.switch_cpus0.dtb.write_hits                  0                       # DTB write hits
system.switch_cpus0.dtb.write_misses                0                       # DTB write misses
system.switch_cpus0.dtb.flush_tlb                   0                       # Number of times complete TLB was flushed
system.switch_cpus0.dtb.flush_tlb_mva               0                       # Number of times TLB was flushed by MVA
system.switch_cpus0.dtb.flush_tlb_mva_asid            0                       # Number of times TLB was flushed by MVA & ASID
system.switch_cpus0.dtb.flush_tlb_asid              0                       # Number of times TLB was flushed by ASID
system.switch_cpus0.dtb.flush_entries               0                       # Number of entries that have been flushed from TLB
system.switch_cpus0.dtb.align_faults                0                       # Number of TLB faults due to alignment restrictions
system.switch_cpus0.dtb.prefetch_faults             0                       # Number of TLB faults due to prefetch
system.switch_cpus0.dtb.domain_faults               0                       # Number of TLB faults due to domain restrictions
system.switch_cpus0.dtb.perms_faults                0                       # Number of TLB faults due to permissions restrictions
system.switch_cpus0.dtb.read_accesses               0                       # DTB read accesses
system.switch_cpus0.dtb.write_accesses              0                       # DTB write accesses
system.switch_cpus0.dtb.inst_accesses               0                       # ITB inst accesses
system.switch_cpus0.dtb.hits                        0                       # DTB hits
system.switch_cpus0.dtb.misses                      0                       # DTB misses
system.switch_cpus0.dtb.accesses                    0                       # DTB accesses
system.switch_cpus0.itb.inst_hits                   0                       # ITB inst hits
system.switch_cpus0.itb.inst_misses                 0                       # ITB inst misses
system.switch_cpus0.itb.read_hits                   0                       # DTB read hits
system.switch_cpus0.itb.read_misses                 0                       # DTB read misses
system.switch_cpus0.itb.write_hits                  0                       # DTB write hits
system.switch_cpus0.itb.write_misses                0                       # DTB write misses
system.switch_cpus0.itb.flush_tlb                   0                       # Number of times complete TLB was flushed
system.switch_cpus0.itb.flush_tlb_mva               0                       # Number of times TLB was flushed by MVA
system.switch_cpus0.itb.flush_tlb_mva_asid            0                       # Number of times TLB was flushed by MVA & ASID
system.switch_cpus0.itb.flush_tlb_asid              0                       # Number of times TLB was flushed by ASID
system.switch_cpus0.itb.flush_entries               0                       # Number of entries that have been flushed from TLB
system.switch_cpus0.itb.align_faults                0                       # Number of TLB faults due to alignment restrictions
system.switch_cpus0.itb.prefetch_faults             0                       # Number of TLB faults due to prefetch
system.switch_cpus0.itb.domain_faults               0                       # Number of TLB faults due to domain restrictions
system.switch_cpus0.itb.perms_faults                0                       # Number of TLB faults due to permissions restrictions
system.switch_cpus0.itb.read_accesses               0                       # DTB read accesses
system.switch_cpus0.itb.write_accesses              0                       # DTB write accesses
system.switch_cpus0.itb.inst_accesses               0                       # ITB inst accesses
system.switch_cpus0.itb.hits                        0                       # DTB hits
system.switch_cpus0.itb.misses                      0                       # DTB misses
system.switch_cpus0.itb.accesses                    0                       # DTB accesses
system.cpu0.workload.num_syscalls                   0                       # Number of system calls
system.switch_cpus0.numCycles               238134132                       # number of cpu cycles simulated
system.switch_cpus0.numWorkItemsStarted             0                       # number of work items this cpu started
system.switch_cpus0.numWorkItemsCompleted            0                       # number of work items this cpu completed
system.switch_cpus0.BPredUnit.lookups        21503330                       # Number of BP lookups
system.switch_cpus0.BPredUnit.condPredicted     17432334                       # Number of conditional branches predicted
system.switch_cpus0.BPredUnit.condIncorrect      1979153                       # Number of conditional branches incorrect
system.switch_cpus0.BPredUnit.BTBLookups      8753281                       # Number of BTB lookups
system.switch_cpus0.BPredUnit.BTBHits         8145150                       # Number of BTB hits
system.switch_cpus0.BPredUnit.BTBCorrect            0                       # Number of correct BTB predictions (this stat may not work properly.
system.switch_cpus0.BPredUnit.usedRAS         2334334                       # Number of times the RAS was used to get a target.
system.switch_cpus0.BPredUnit.RASInCorrect        93650                       # Number of incorrect RAS predictions.
system.switch_cpus0.fetch.icacheStallCycles    186306012                       # Number of cycles fetch is stalled on an Icache miss
system.switch_cpus0.fetch.Insts             119891084                       # Number of instructions fetch has processed
system.switch_cpus0.fetch.Branches           21503330                       # Number of branches that fetch encountered
system.switch_cpus0.fetch.predictedBranches     10479484                       # Number of branches that fetch has predicted taken
system.switch_cpus0.fetch.Cycles             26386592                       # Number of cycles fetch has run and was not squashing or blocked
system.switch_cpus0.fetch.SquashCycles        6032474                       # Number of cycles fetch has spent squashing
system.switch_cpus0.fetch.BlockedCycles       3530606                       # Number of cycles fetch has spent blocked
system.switch_cpus0.fetch.MiscStallCycles            1                       # Number of cycles fetch has spent waiting on interrupts, or bad addresses, or out of MSHRs
system.switch_cpus0.fetch.PendingTrapStallCycles           36                       # Number of stall cycles due to pending traps
system.switch_cpus0.fetch.CacheLines         11511224                       # Number of cache lines fetched
system.switch_cpus0.fetch.IcacheSquashes      1977342                       # Number of outstanding Icache misses that were squashed
system.switch_cpus0.fetch.rateDist::samples    220251030                       # Number of instructions fetched each cycle (Total)
system.switch_cpus0.fetch.rateDist::mean     0.668564                       # Number of instructions fetched each cycle (Total)
system.switch_cpus0.fetch.rateDist::stdev     2.029146                       # Number of instructions fetched each cycle (Total)
system.switch_cpus0.fetch.rateDist::underflows            0      0.00%      0.00% # Number of instructions fetched each cycle (Total)
system.switch_cpus0.fetch.rateDist::0       193864438     88.02%     88.02% # Number of instructions fetched each cycle (Total)
system.switch_cpus0.fetch.rateDist::1         1837919      0.83%     88.85% # Number of instructions fetched each cycle (Total)
system.switch_cpus0.fetch.rateDist::2         3336101      1.51%     90.37% # Number of instructions fetched each cycle (Total)
system.switch_cpus0.fetch.rateDist::3         3089501      1.40%     91.77% # Number of instructions fetched each cycle (Total)
system.switch_cpus0.fetch.rateDist::4         1964573      0.89%     92.66% # Number of instructions fetched each cycle (Total)
system.switch_cpus0.fetch.rateDist::5         1615955      0.73%     93.40% # Number of instructions fetched each cycle (Total)
system.switch_cpus0.fetch.rateDist::6          924590      0.42%     93.82% # Number of instructions fetched each cycle (Total)
system.switch_cpus0.fetch.rateDist::7          955878      0.43%     94.25% # Number of instructions fetched each cycle (Total)
system.switch_cpus0.fetch.rateDist::8        12662075      5.75%    100.00% # Number of instructions fetched each cycle (Total)
system.switch_cpus0.fetch.rateDist::overflows            0      0.00%    100.00% # Number of instructions fetched each cycle (Total)
system.switch_cpus0.fetch.rateDist::min_value            0                       # Number of instructions fetched each cycle (Total)
system.switch_cpus0.fetch.rateDist::max_value            8                       # Number of instructions fetched each cycle (Total)
system.switch_cpus0.fetch.rateDist::total    220251030                       # Number of instructions fetched each cycle (Total)
system.switch_cpus0.fetch.branchRate         0.090299                       # Number of branch fetches per cycle
system.switch_cpus0.fetch.rate               0.503460                       # Number of inst fetches per cycle
system.switch_cpus0.decode.IdleCycles       184404897                       # Number of cycles decode is idle
system.switch_cpus0.decode.BlockedCycles      5448774                       # Number of cycles decode is blocked
system.switch_cpus0.decode.RunCycles         26324228                       # Number of cycles decode is running
system.switch_cpus0.decode.UnblockCycles        45573                       # Number of cycles decode is unblocking
system.switch_cpus0.decode.SquashCycles       4027557                       # Number of cycles decode is squashing
system.switch_cpus0.decode.BranchResolved      3734135                       # Number of times decode resolved a branch
system.switch_cpus0.decode.BranchMispred          226                       # Number of times decode detected a branch misprediction
system.switch_cpus0.decode.DecodedInsts     147155305                       # Number of instructions handled by decode
system.switch_cpus0.decode.SquashedInsts         1293                       # Number of squashed instructions handled by decode
system.switch_cpus0.rename.SquashCycles       4027557                       # Number of cycles rename is squashing
system.switch_cpus0.rename.IdleCycles       184877101                       # Number of cycles rename is idle
system.switch_cpus0.rename.BlockCycles        1211842                       # Number of cycles rename is blocking
system.switch_cpus0.rename.serializeStallCycles      3150039                       # count of cycles rename stalled for serializing inst
system.switch_cpus0.rename.RunCycles         25868847                       # Number of cycles rename is running
system.switch_cpus0.rename.UnblockCycles      1115643                       # Number of cycles rename is unblocking
system.switch_cpus0.rename.RenamedInsts     147031683                       # Number of instructions processed by rename
system.switch_cpus0.rename.IQFullEvents        188298                       # Number of times rename has blocked due to IQ full
system.switch_cpus0.rename.LSQFullEvents       478803                       # Number of times rename has blocked due to LSQ full
system.switch_cpus0.rename.RenamedOperands    208567698                       # Number of destination operands rename has renamed
system.switch_cpus0.rename.RenameLookups    684891253                       # Number of register rename lookups that rename has made
system.switch_cpus0.rename.int_rename_lookups    684891253                       # Number of integer rename lookups
system.switch_cpus0.rename.CommittedMaps    171704513                       # Number of HB maps that are committed
system.switch_cpus0.rename.UndoneMaps        36863176                       # Number of HB maps that are undone due to squashing
system.switch_cpus0.rename.serializingInsts        33814                       # count of serializing insts renamed
system.switch_cpus0.rename.tempSerializingInsts        16907                       # count of temporary serializing insts renamed
system.switch_cpus0.rename.skidInsts          4110167                       # count of insts added to the skid buffer
system.switch_cpus0.memDep0.insertedLoads     13863625                       # Number of loads inserted to the mem dependence unit.
system.switch_cpus0.memDep0.insertedStores      7183508                       # Number of stores inserted to the mem dependence unit.
system.switch_cpus0.memDep0.conflictingLoads        82038                       # Number of conflicting loads.
system.switch_cpus0.memDep0.conflictingStores      1597538                       # Number of conflicting stores.
system.switch_cpus0.iq.iqInstsAdded         146069538                       # Number of instructions added to the IQ (excludes non-spec)
system.switch_cpus0.iq.iqNonSpecInstsAdded        33814                       # Number of non-speculative instructions added to the IQ
system.switch_cpus0.iq.iqInstsIssued        137965708                       # Number of instructions issued
system.switch_cpus0.iq.iqSquashedInstsIssued       116764                       # Number of squashed instructions issued
system.switch_cpus0.iq.iqSquashedInstsExamined     22007167                       # Number of squashed instructions iterated over during squash; mainly for profiling
system.switch_cpus0.iq.iqSquashedOperandsExamined     46232658                       # Number of squashed operands that are examined and possibly removed from graph
system.switch_cpus0.iq.issued_per_cycle::samples    220251030                       # Number of insts issued each cycle
system.switch_cpus0.iq.issued_per_cycle::mean     0.626402                       # Number of insts issued each cycle
system.switch_cpus0.iq.issued_per_cycle::stdev     1.299500                       # Number of insts issued each cycle
system.switch_cpus0.iq.issued_per_cycle::underflows            0      0.00%      0.00% # Number of insts issued each cycle
system.switch_cpus0.iq.issued_per_cycle::0    160760417     72.99%     72.99% # Number of insts issued each cycle
system.switch_cpus0.iq.issued_per_cycle::1     25180069     11.43%     84.42% # Number of insts issued each cycle
system.switch_cpus0.iq.issued_per_cycle::2     13546046      6.15%     90.57% # Number of insts issued each cycle
system.switch_cpus0.iq.issued_per_cycle::3      6866852      3.12%     93.69% # Number of insts issued each cycle
system.switch_cpus0.iq.issued_per_cycle::4      8184208      3.72%     97.41% # Number of insts issued each cycle
system.switch_cpus0.iq.issued_per_cycle::5      2648112      1.20%     98.61% # Number of insts issued each cycle
system.switch_cpus0.iq.issued_per_cycle::6      2484030      1.13%     99.74% # Number of insts issued each cycle
system.switch_cpus0.iq.issued_per_cycle::7       438949      0.20%     99.94% # Number of insts issued each cycle
system.switch_cpus0.iq.issued_per_cycle::8       142347      0.06%    100.00% # Number of insts issued each cycle
system.switch_cpus0.iq.issued_per_cycle::overflows            0      0.00%    100.00% # Number of insts issued each cycle
system.switch_cpus0.iq.issued_per_cycle::min_value            0                       # Number of insts issued each cycle
system.switch_cpus0.iq.issued_per_cycle::max_value            8                       # Number of insts issued each cycle
system.switch_cpus0.iq.issued_per_cycle::total    220251030                       # Number of insts issued each cycle
system.switch_cpus0.iq.fu_full::No_OpClass            0      0.00%      0.00% # attempts to use FU when none available
system.switch_cpus0.iq.fu_full::IntAlu         416745     59.73%     59.73% # attempts to use FU when none available
system.switch_cpus0.iq.fu_full::IntMult             0      0.00%     59.73% # attempts to use FU when none available
system.switch_cpus0.iq.fu_full::IntDiv              0      0.00%     59.73% # attempts to use FU when none available
system.switch_cpus0.iq.fu_full::FloatAdd            0      0.00%     59.73% # attempts to use FU when none available
system.switch_cpus0.iq.fu_full::FloatCmp            0      0.00%     59.73% # attempts to use FU when none available
system.switch_cpus0.iq.fu_full::FloatCvt            0      0.00%     59.73% # attempts to use FU when none available
system.switch_cpus0.iq.fu_full::FloatMult            0      0.00%     59.73% # attempts to use FU when none available
system.switch_cpus0.iq.fu_full::FloatDiv            0      0.00%     59.73% # attempts to use FU when none available
system.switch_cpus0.iq.fu_full::FloatSqrt            0      0.00%     59.73% # attempts to use FU when none available
system.switch_cpus0.iq.fu_full::SimdAdd             0      0.00%     59.73% # attempts to use FU when none available
system.switch_cpus0.iq.fu_full::SimdAddAcc            0      0.00%     59.73% # attempts to use FU when none available
system.switch_cpus0.iq.fu_full::SimdAlu             0      0.00%     59.73% # attempts to use FU when none available
system.switch_cpus0.iq.fu_full::SimdCmp             0      0.00%     59.73% # attempts to use FU when none available
system.switch_cpus0.iq.fu_full::SimdCvt             0      0.00%     59.73% # attempts to use FU when none available
system.switch_cpus0.iq.fu_full::SimdMisc            0      0.00%     59.73% # attempts to use FU when none available
system.switch_cpus0.iq.fu_full::SimdMult            0      0.00%     59.73% # attempts to use FU when none available
system.switch_cpus0.iq.fu_full::SimdMultAcc            0      0.00%     59.73% # attempts to use FU when none available
system.switch_cpus0.iq.fu_full::SimdShift            0      0.00%     59.73% # attempts to use FU when none available
system.switch_cpus0.iq.fu_full::SimdShiftAcc            0      0.00%     59.73% # attempts to use FU when none available
system.switch_cpus0.iq.fu_full::SimdSqrt            0      0.00%     59.73% # attempts to use FU when none available
system.switch_cpus0.iq.fu_full::SimdFloatAdd            0      0.00%     59.73% # attempts to use FU when none available
system.switch_cpus0.iq.fu_full::SimdFloatAlu            0      0.00%     59.73% # attempts to use FU when none available
system.switch_cpus0.iq.fu_full::SimdFloatCmp            0      0.00%     59.73% # attempts to use FU when none available
system.switch_cpus0.iq.fu_full::SimdFloatCvt            0      0.00%     59.73% # attempts to use FU when none available
system.switch_cpus0.iq.fu_full::SimdFloatDiv            0      0.00%     59.73% # attempts to use FU when none available
system.switch_cpus0.iq.fu_full::SimdFloatMisc            0      0.00%     59.73% # attempts to use FU when none available
system.switch_cpus0.iq.fu_full::SimdFloatMult            0      0.00%     59.73% # attempts to use FU when none available
system.switch_cpus0.iq.fu_full::SimdFloatMultAcc            0      0.00%     59.73% # attempts to use FU when none available
system.switch_cpus0.iq.fu_full::SimdFloatSqrt            0      0.00%     59.73% # attempts to use FU when none available
system.switch_cpus0.iq.fu_full::MemRead        143132     20.51%     80.25% # attempts to use FU when none available
system.switch_cpus0.iq.fu_full::MemWrite       137819     19.75%    100.00% # attempts to use FU when none available
system.switch_cpus0.iq.fu_full::IprAccess            0      0.00%    100.00% # attempts to use FU when none available
system.switch_cpus0.iq.fu_full::InstPrefetch            0      0.00%    100.00% # attempts to use FU when none available
system.switch_cpus0.iq.FU_type_0::No_OpClass            0      0.00%      0.00% # Type of FU issued
system.switch_cpus0.iq.FU_type_0::IntAlu    116019644     84.09%     84.09% # Type of FU issued
system.switch_cpus0.iq.FU_type_0::IntMult      1978149      1.43%     85.53% # Type of FU issued
system.switch_cpus0.iq.FU_type_0::IntDiv            0      0.00%     85.53% # Type of FU issued
system.switch_cpus0.iq.FU_type_0::FloatAdd            0      0.00%     85.53% # Type of FU issued
system.switch_cpus0.iq.FU_type_0::FloatCmp            0      0.00%     85.53% # Type of FU issued
system.switch_cpus0.iq.FU_type_0::FloatCvt            0      0.00%     85.53% # Type of FU issued
system.switch_cpus0.iq.FU_type_0::FloatMult            0      0.00%     85.53% # Type of FU issued
system.switch_cpus0.iq.FU_type_0::FloatDiv            0      0.00%     85.53% # Type of FU issued
system.switch_cpus0.iq.FU_type_0::FloatSqrt            0      0.00%     85.53% # Type of FU issued
system.switch_cpus0.iq.FU_type_0::SimdAdd            0      0.00%     85.53% # Type of FU issued
system.switch_cpus0.iq.FU_type_0::SimdAddAcc            0      0.00%     85.53% # Type of FU issued
system.switch_cpus0.iq.FU_type_0::SimdAlu            0      0.00%     85.53% # Type of FU issued
system.switch_cpus0.iq.FU_type_0::SimdCmp            0      0.00%     85.53% # Type of FU issued
system.switch_cpus0.iq.FU_type_0::SimdCvt            0      0.00%     85.53% # Type of FU issued
system.switch_cpus0.iq.FU_type_0::SimdMisc            0      0.00%     85.53% # Type of FU issued
system.switch_cpus0.iq.FU_type_0::SimdMult            0      0.00%     85.53% # Type of FU issued
system.switch_cpus0.iq.FU_type_0::SimdMultAcc            0      0.00%     85.53% # Type of FU issued
system.switch_cpus0.iq.FU_type_0::SimdShift            0      0.00%     85.53% # Type of FU issued
system.switch_cpus0.iq.FU_type_0::SimdShiftAcc            0      0.00%     85.53% # Type of FU issued
system.switch_cpus0.iq.FU_type_0::SimdSqrt            0      0.00%     85.53% # Type of FU issued
system.switch_cpus0.iq.FU_type_0::SimdFloatAdd            0      0.00%     85.53% # Type of FU issued
system.switch_cpus0.iq.FU_type_0::SimdFloatAlu            0      0.00%     85.53% # Type of FU issued
system.switch_cpus0.iq.FU_type_0::SimdFloatCmp            0      0.00%     85.53% # Type of FU issued
system.switch_cpus0.iq.FU_type_0::SimdFloatCvt            0      0.00%     85.53% # Type of FU issued
system.switch_cpus0.iq.FU_type_0::SimdFloatDiv            0      0.00%     85.53% # Type of FU issued
system.switch_cpus0.iq.FU_type_0::SimdFloatMisc        16907      0.01%     85.54% # Type of FU issued
system.switch_cpus0.iq.FU_type_0::SimdFloatMult            0      0.00%     85.54% # Type of FU issued
system.switch_cpus0.iq.FU_type_0::SimdFloatMultAcc            0      0.00%     85.54% # Type of FU issued
system.switch_cpus0.iq.FU_type_0::SimdFloatSqrt            0      0.00%     85.54% # Type of FU issued
system.switch_cpus0.iq.FU_type_0::MemRead     12790109      9.27%     94.81% # Type of FU issued
system.switch_cpus0.iq.FU_type_0::MemWrite      7160899      5.19%    100.00% # Type of FU issued
system.switch_cpus0.iq.FU_type_0::IprAccess            0      0.00%    100.00% # Type of FU issued
system.switch_cpus0.iq.FU_type_0::InstPrefetch            0      0.00%    100.00% # Type of FU issued
system.switch_cpus0.iq.FU_type_0::total     137965708                       # Type of FU issued
system.switch_cpus0.iq.rate                  0.579361                       # Inst issue rate
system.switch_cpus0.iq.fu_busy_cnt             697696                       # FU busy when requested
system.switch_cpus0.iq.fu_busy_rate          0.005057                       # FU busy rate (busy events/executed inst)
system.switch_cpus0.iq.int_inst_queue_reads    496996905                       # Number of integer instruction queue reads
system.switch_cpus0.iq.int_inst_queue_writes    168110728                       # Number of integer instruction queue writes
system.switch_cpus0.iq.int_inst_queue_wakeup_accesses    134981716                       # Number of integer instruction queue wakeup accesses
system.switch_cpus0.iq.fp_inst_queue_reads            0                       # Number of floating instruction queue reads
system.switch_cpus0.iq.fp_inst_queue_writes            0                       # Number of floating instruction queue writes
system.switch_cpus0.iq.fp_inst_queue_wakeup_accesses            0                       # Number of floating instruction queue wakeup accesses
system.switch_cpus0.iq.int_alu_accesses     138663404                       # Number of integer alu accesses
system.switch_cpus0.iq.fp_alu_accesses              0                       # Number of floating point alu accesses
system.switch_cpus0.iew.lsq.thread0.forwLoads       268187                       # Number of loads that had data forwarded from stores
system.switch_cpus0.iew.lsq.thread0.invAddrLoads            0                       # Number of loads ignored due to an invalid address
system.switch_cpus0.iew.lsq.thread0.squashedLoads      2670204                       # Number of loads squashed
system.switch_cpus0.iew.lsq.thread0.ignoredResponses            5                       # Number of memory responses ignored because the instruction is squashed
system.switch_cpus0.iew.lsq.thread0.memOrderViolation          209                       # Number of memory ordering violations
system.switch_cpus0.iew.lsq.thread0.squashedStores        92480                       # Number of stores squashed
system.switch_cpus0.iew.lsq.thread0.invAddrSwpfs            0                       # Number of software prefetches ignored due to an invalid address
system.switch_cpus0.iew.lsq.thread0.blockedLoads            0                       # Number of blocked loads due to partial load-store forwarding
system.switch_cpus0.iew.lsq.thread0.rescheduledLoads            0                       # Number of loads that were rescheduled
system.switch_cpus0.iew.lsq.thread0.cacheBlocked            0                       # Number of times an access to memory failed due to the cache being blocked
system.switch_cpus0.iew.iewIdleCycles               0                       # Number of cycles IEW is idle
system.switch_cpus0.iew.iewSquashCycles       4027557                       # Number of cycles IEW is squashing
system.switch_cpus0.iew.iewBlockCycles         819342                       # Number of cycles IEW is blocking
system.switch_cpus0.iew.iewUnblockCycles       114214                       # Number of cycles IEW is unblocking
system.switch_cpus0.iew.iewDispatchedInsts    146103355                       # Number of instructions dispatched to IQ
system.switch_cpus0.iew.iewDispSquashedInsts         8502                       # Number of squashed instructions skipped by dispatch
system.switch_cpus0.iew.iewDispLoadInsts     13863625                       # Number of dispatched load instructions
system.switch_cpus0.iew.iewDispStoreInsts      7183508                       # Number of dispatched store instructions
system.switch_cpus0.iew.iewDispNonSpecInsts        16907                       # Number of dispatched non-speculative instructions
system.switch_cpus0.iew.iewIQFullEvents         99037                       # Number of times the IQ has become full, causing a stall
system.switch_cpus0.iew.iewLSQFullEvents            0                       # Number of times the LSQ has become full, causing a stall
system.switch_cpus0.iew.memOrderViolationEvents          209                       # Number of memory order violations
system.switch_cpus0.iew.predictedTakenIncorrect      1056654                       # Number of branches that were predicted taken incorrectly
system.switch_cpus0.iew.predictedNotTakenIncorrect      1102059                       # Number of branches that were predicted not taken incorrectly
system.switch_cpus0.iew.branchMispredicts      2158713                       # Number of branch mispredicts detected at execute
system.switch_cpus0.iew.iewExecutedInsts    135975476                       # Number of executed instructions
system.switch_cpus0.iew.iewExecLoadInsts     12339643                       # Number of load instructions executed
system.switch_cpus0.iew.iewExecSquashedInsts      1990231                       # Number of squashed instructions skipped in execute
system.switch_cpus0.iew.exec_swp                    0                       # number of swp insts executed
system.switch_cpus0.iew.exec_nop                    3                       # number of nop insts executed
system.switch_cpus0.iew.exec_refs            19500396                       # number of memory reference insts executed
system.switch_cpus0.iew.exec_branches        19195443                       # Number of branches executed
system.switch_cpus0.iew.exec_stores           7160753                       # Number of stores executed
system.switch_cpus0.iew.exec_rate            0.571004                       # Inst execution rate
system.switch_cpus0.iew.wb_sent             134981761                       # cumulative count of insts sent to commit
system.switch_cpus0.iew.wb_count            134981716                       # cumulative count of insts written-back
system.switch_cpus0.iew.wb_producers         77883088                       # num instructions producing a value
system.switch_cpus0.iew.wb_consumers        216943729                       # num instructions consuming a value
system.switch_cpus0.iew.wb_penalized                0                       # number of instrctions required to write to 'other' IQ
system.switch_cpus0.iew.wb_rate              0.566831                       # insts written-back per cycle
system.switch_cpus0.iew.wb_fanout            0.359001                       # average fanout of values written-back
system.switch_cpus0.iew.wb_penalized_rate            0                       # fraction of instructions written-back that wrote to 'other' IQ
system.switch_cpus0.commit.commitCommittedInsts    100000001                       # The number of committed instructions
system.switch_cpus0.commit.commitCommittedOps    123129333                       # The number of committed instructions
system.switch_cpus0.commit.commitSquashedInsts     22974410                       # The number of squashed insts skipped by commit
system.switch_cpus0.commit.commitNonSpecStalls        33814                       # The number of times commit has been forced to stall to communicate backwards
system.switch_cpus0.commit.branchMispredicts      2004289                       # The number of times a branch was mispredicted
system.switch_cpus0.commit.committed_per_cycle::samples    216223473                       # Number of insts commited each cycle
system.switch_cpus0.commit.committed_per_cycle::mean     0.569454                       # Number of insts commited each cycle
system.switch_cpus0.commit.committed_per_cycle::stdev     1.369146                       # Number of insts commited each cycle
system.switch_cpus0.commit.committed_per_cycle::underflows            0      0.00%      0.00% # Number of insts commited each cycle
system.switch_cpus0.commit.committed_per_cycle::0    164371319     76.02%     76.02% # Number of insts commited each cycle
system.switch_cpus0.commit.committed_per_cycle::1     23868387     11.04%     87.06% # Number of insts commited each cycle
system.switch_cpus0.commit.committed_per_cycle::2     12381184      5.73%     92.78% # Number of insts commited each cycle
system.switch_cpus0.commit.committed_per_cycle::3      3980305      1.84%     94.62% # Number of insts commited each cycle
system.switch_cpus0.commit.committed_per_cycle::4      5464470      2.53%     97.15% # Number of insts commited each cycle
system.switch_cpus0.commit.committed_per_cycle::5      1836379      0.85%     98.00% # Number of insts commited each cycle
system.switch_cpus0.commit.committed_per_cycle::6      1057756      0.49%     98.49% # Number of insts commited each cycle
system.switch_cpus0.commit.committed_per_cycle::7       938032      0.43%     98.92% # Number of insts commited each cycle
system.switch_cpus0.commit.committed_per_cycle::8      2325641      1.08%    100.00% # Number of insts commited each cycle
system.switch_cpus0.commit.committed_per_cycle::overflows            0      0.00%    100.00% # Number of insts commited each cycle
system.switch_cpus0.commit.committed_per_cycle::min_value            0                       # Number of insts commited each cycle
system.switch_cpus0.commit.committed_per_cycle::max_value            8                       # Number of insts commited each cycle
system.switch_cpus0.commit.committed_per_cycle::total    216223473                       # Number of insts commited each cycle
system.switch_cpus0.commit.committedInsts    100000001                       # Number of instructions committed
system.switch_cpus0.commit.committedOps     123129333                       # Number of ops (including micro ops) committed
system.switch_cpus0.commit.swp_count                0                       # Number of s/w prefetches committed
system.switch_cpus0.commit.refs              18284449                       # Number of memory references committed
system.switch_cpus0.commit.loads             11193421                       # Number of loads committed
system.switch_cpus0.commit.membars              16907                       # Number of memory barriers committed
system.switch_cpus0.commit.branches          17772297                       # Number of branches committed
system.switch_cpus0.commit.fp_insts                 0                       # Number of committed floating point instructions.
system.switch_cpus0.commit.int_insts        110930175                       # Number of committed integer instructions.
system.switch_cpus0.commit.function_calls      2539549                       # Number of function calls committed.
system.switch_cpus0.commit.bw_lim_events      2325641                       # number cycles where commit BW limit reached
system.switch_cpus0.commit.bw_limited               0                       # number of insts not committed due to BW limits
system.switch_cpus0.rob.rob_reads           360001575                       # The number of ROB reads
system.switch_cpus0.rob.rob_writes          296235073                       # The number of ROB writes
system.switch_cpus0.timesIdled                2882677                       # Number of times that the entire CPU went into an idle state and unscheduled itself
system.switch_cpus0.idleCycles               17883102                       # Total number of cycles that the CPU has spent unscheduled due to idling
system.switch_cpus0.committedInsts          100000001                       # Number of Instructions Simulated
system.switch_cpus0.committedOps            123129333                       # Number of Ops (including micro ops) Simulated
system.switch_cpus0.committedInsts_total    100000001                       # Number of Instructions Simulated
system.switch_cpus0.cpi                      2.381341                       # CPI: Cycles Per Instruction
system.switch_cpus0.cpi_total                2.381341                       # CPI: Total CPI of All Threads
system.switch_cpus0.ipc                      0.419931                       # IPC: Instructions Per Cycle
system.switch_cpus0.ipc_total                0.419931                       # IPC: Total IPC of All Threads
system.switch_cpus0.int_regfile_reads       611581759                       # number of integer regfile reads
system.switch_cpus0.int_regfile_writes      188898955                       # number of integer regfile writes
system.switch_cpus0.misc_regfile_reads      135815470                       # number of misc regfile reads
system.switch_cpus0.misc_regfile_writes         33814                       # number of misc regfile writes
system.switch_cpus1.dtb.inst_hits                   0                       # ITB inst hits
system.switch_cpus1.dtb.inst_misses                 0                       # ITB inst misses
system.switch_cpus1.dtb.read_hits                   0                       # DTB read hits
system.switch_cpus1.dtb.read_misses                 0                       # DTB read misses
system.switch_cpus1.dtb.write_hits                  0                       # DTB write hits
system.switch_cpus1.dtb.write_misses                0                       # DTB write misses
system.switch_cpus1.dtb.flush_tlb                   0                       # Number of times complete TLB was flushed
system.switch_cpus1.dtb.flush_tlb_mva               0                       # Number of times TLB was flushed by MVA
system.switch_cpus1.dtb.flush_tlb_mva_asid            0                       # Number of times TLB was flushed by MVA & ASID
system.switch_cpus1.dtb.flush_tlb_asid              0                       # Number of times TLB was flushed by ASID
system.switch_cpus1.dtb.flush_entries               0                       # Number of entries that have been flushed from TLB
system.switch_cpus1.dtb.align_faults                0                       # Number of TLB faults due to alignment restrictions
system.switch_cpus1.dtb.prefetch_faults             0                       # Number of TLB faults due to prefetch
system.switch_cpus1.dtb.domain_faults               0                       # Number of TLB faults due to domain restrictions
system.switch_cpus1.dtb.perms_faults                0                       # Number of TLB faults due to permissions restrictions
system.switch_cpus1.dtb.read_accesses               0                       # DTB read accesses
system.switch_cpus1.dtb.write_accesses              0                       # DTB write accesses
system.switch_cpus1.dtb.inst_accesses               0                       # ITB inst accesses
system.switch_cpus1.dtb.hits                        0                       # DTB hits
system.switch_cpus1.dtb.misses                      0                       # DTB misses
system.switch_cpus1.dtb.accesses                    0                       # DTB accesses
system.switch_cpus1.itb.inst_hits                   0                       # ITB inst hits
system.switch_cpus1.itb.inst_misses                 0                       # ITB inst misses
system.switch_cpus1.itb.read_hits                   0                       # DTB read hits
system.switch_cpus1.itb.read_misses                 0                       # DTB read misses
system.switch_cpus1.itb.write_hits                  0                       # DTB write hits
system.switch_cpus1.itb.write_misses                0                       # DTB write misses
system.switch_cpus1.itb.flush_tlb                   0                       # Number of times complete TLB was flushed
system.switch_cpus1.itb.flush_tlb_mva               0                       # Number of times TLB was flushed by MVA
system.switch_cpus1.itb.flush_tlb_mva_asid            0                       # Number of times TLB was flushed by MVA & ASID
system.switch_cpus1.itb.flush_tlb_asid              0                       # Number of times TLB was flushed by ASID
system.switch_cpus1.itb.flush_entries               0                       # Number of entries that have been flushed from TLB
system.switch_cpus1.itb.align_faults                0                       # Number of TLB faults due to alignment restrictions
system.switch_cpus1.itb.prefetch_faults             0                       # Number of TLB faults due to prefetch
system.switch_cpus1.itb.domain_faults               0                       # Number of TLB faults due to domain restrictions
system.switch_cpus1.itb.perms_faults                0                       # Number of TLB faults due to permissions restrictions
system.switch_cpus1.itb.read_accesses               0                       # DTB read accesses
system.switch_cpus1.itb.write_accesses              0                       # DTB write accesses
system.switch_cpus1.itb.inst_accesses               0                       # ITB inst accesses
system.switch_cpus1.itb.hits                        0                       # DTB hits
system.switch_cpus1.itb.misses                      0                       # DTB misses
system.switch_cpus1.itb.accesses                    0                       # DTB accesses
system.cpu1.workload.num_syscalls                   0                       # Number of system calls
system.switch_cpus1.numCycles               238134060                       # number of cpu cycles simulated
system.switch_cpus1.numWorkItemsStarted             0                       # number of work items this cpu started
system.switch_cpus1.numWorkItemsCompleted            0                       # number of work items this cpu completed
system.switch_cpus1.BPredUnit.lookups        21529862                       # Number of BP lookups
system.switch_cpus1.BPredUnit.condPredicted     17445921                       # Number of conditional branches predicted
system.switch_cpus1.BPredUnit.condIncorrect      1973267                       # Number of conditional branches incorrect
system.switch_cpus1.BPredUnit.BTBLookups      8571928                       # Number of BTB lookups
system.switch_cpus1.BPredUnit.BTBHits         8113146                       # Number of BTB hits
system.switch_cpus1.BPredUnit.BTBCorrect            0                       # Number of correct BTB predictions (this stat may not work properly.
system.switch_cpus1.BPredUnit.usedRAS         2417172                       # Number of times the RAS was used to get a target.
system.switch_cpus1.BPredUnit.RASInCorrect        89298                       # Number of incorrect RAS predictions.
system.switch_cpus1.fetch.icacheStallCycles    182073492                       # Number of cycles fetch is stalled on an Icache miss
system.switch_cpus1.fetch.Insts             119762801                       # Number of instructions fetch has processed
system.switch_cpus1.fetch.Branches           21529862                       # Number of branches that fetch encountered
system.switch_cpus1.fetch.predictedBranches     10530318                       # Number of branches that fetch has predicted taken
system.switch_cpus1.fetch.Cycles             26231029                       # Number of cycles fetch has run and was not squashing or blocked
system.switch_cpus1.fetch.SquashCycles        6057898                       # Number of cycles fetch has spent squashing
system.switch_cpus1.fetch.BlockedCycles       4392008                       # Number of cycles fetch has spent blocked
system.switch_cpus1.fetch.CacheLines         11391416                       # Number of cache lines fetched
system.switch_cpus1.fetch.IcacheSquashes      1972791                       # Number of outstanding Icache misses that were squashed
system.switch_cpus1.fetch.rateDist::samples    216736960                       # Number of instructions fetched each cycle (Total)
system.switch_cpus1.fetch.rateDist::mean     0.678899                       # Number of instructions fetched each cycle (Total)
system.switch_cpus1.fetch.rateDist::stdev     2.051283                       # Number of instructions fetched each cycle (Total)
system.switch_cpus1.fetch.rateDist::underflows            0      0.00%      0.00% # Number of instructions fetched each cycle (Total)
system.switch_cpus1.fetch.rateDist::0       190505931     87.90%     87.90% # Number of instructions fetched each cycle (Total)
system.switch_cpus1.fetch.rateDist::1         2441107      1.13%     89.02% # Number of instructions fetched each cycle (Total)
system.switch_cpus1.fetch.rateDist::2         1924080      0.89%     89.91% # Number of instructions fetched each cycle (Total)
system.switch_cpus1.fetch.rateDist::3         4517271      2.08%     92.00% # Number of instructions fetched each cycle (Total)
system.switch_cpus1.fetch.rateDist::4          972623      0.45%     92.44% # Number of instructions fetched each cycle (Total)
system.switch_cpus1.fetch.rateDist::5         1513326      0.70%     93.14% # Number of instructions fetched each cycle (Total)
system.switch_cpus1.fetch.rateDist::6         1163305      0.54%     93.68% # Number of instructions fetched each cycle (Total)
system.switch_cpus1.fetch.rateDist::7          730069      0.34%     94.02% # Number of instructions fetched each cycle (Total)
system.switch_cpus1.fetch.rateDist::8        12969248      5.98%    100.00% # Number of instructions fetched each cycle (Total)
system.switch_cpus1.fetch.rateDist::overflows            0      0.00%    100.00% # Number of instructions fetched each cycle (Total)
system.switch_cpus1.fetch.rateDist::min_value            0                       # Number of instructions fetched each cycle (Total)
system.switch_cpus1.fetch.rateDist::max_value            8                       # Number of instructions fetched each cycle (Total)
system.switch_cpus1.fetch.rateDist::total    216736960                       # Number of instructions fetched each cycle (Total)
system.switch_cpus1.fetch.branchRate         0.090411                       # Number of branch fetches per cycle
system.switch_cpus1.fetch.rate               0.502922                       # Number of inst fetches per cycle
system.switch_cpus1.decode.IdleCycles       180056550                       # Number of cycles decode is idle
system.switch_cpus1.decode.BlockedCycles      6468239                       # Number of cycles decode is blocked
system.switch_cpus1.decode.RunCycles         26125659                       # Number of cycles decode is running
system.switch_cpus1.decode.UnblockCycles        87070                       # Number of cycles decode is unblocking
system.switch_cpus1.decode.SquashCycles       3999438                       # Number of cycles decode is squashing
system.switch_cpus1.decode.BranchResolved      3707895                       # Number of times decode resolved a branch
system.switch_cpus1.decode.BranchMispred        41540                       # Number of times decode detected a branch misprediction
system.switch_cpus1.decode.DecodedInsts     146852355                       # Number of instructions handled by decode
system.switch_cpus1.decode.SquashedInsts        76203                       # Number of squashed instructions handled by decode
system.switch_cpus1.rename.SquashCycles       3999438                       # Number of cycles rename is squashing
system.switch_cpus1.rename.IdleCycles       180553413                       # Number of cycles rename is idle
system.switch_cpus1.rename.BlockCycles        1629012                       # Number of cycles rename is blocking
system.switch_cpus1.rename.serializeStallCycles      3442246                       # count of cycles rename stalled for serializing inst
system.switch_cpus1.rename.RunCycles         25686319                       # Number of cycles rename is running
system.switch_cpus1.rename.UnblockCycles      1426528                       # Number of cycles rename is unblocking
system.switch_cpus1.rename.RenamedInsts     146718617                       # Number of instructions processed by rename
system.switch_cpus1.rename.ROBFullEvents        26858                       # Number of times rename has blocked due to ROB full
system.switch_cpus1.rename.IQFullEvents        271050                       # Number of times rename has blocked due to IQ full
system.switch_cpus1.rename.LSQFullEvents       527893                       # Number of times rename has blocked due to LSQ full
system.switch_cpus1.rename.FullRegisterEvents       193978                       # Number of times there has been no free registers
system.switch_cpus1.rename.RenamedOperands    206392658                       # Number of destination operands rename has renamed
system.switch_cpus1.rename.RenameLookups    684700636                       # Number of register rename lookups that rename has made
system.switch_cpus1.rename.int_rename_lookups    684700636                       # Number of integer rename lookups
system.switch_cpus1.rename.CommittedMaps    167534375                       # Number of HB maps that are committed
system.switch_cpus1.rename.UndoneMaps        38858069                       # Number of HB maps that are undone due to squashing
system.switch_cpus1.rename.serializingInsts        36625                       # count of serializing insts renamed
system.switch_cpus1.rename.tempSerializingInsts        20389                       # count of temporary serializing insts renamed
system.switch_cpus1.rename.skidInsts          4638769                       # count of insts added to the skid buffer
system.switch_cpus1.memDep0.insertedLoads     14249476                       # Number of loads inserted to the mem dependence unit.
system.switch_cpus1.memDep0.insertedStores      7089653                       # Number of stores inserted to the mem dependence unit.
system.switch_cpus1.memDep0.conflictingLoads       131172                       # Number of conflicting loads.
system.switch_cpus1.memDep0.conflictingStores      1578380                       # Number of conflicting stores.
system.switch_cpus1.iq.iqInstsAdded         145667883                       # Number of instructions added to the IQ (excludes non-spec)
system.switch_cpus1.iq.iqNonSpecInstsAdded        36604                       # Number of non-speculative instructions added to the IQ
system.switch_cpus1.iq.iqInstsIssued        136805038                       # Number of instructions issued
system.switch_cpus1.iq.iqSquashedInstsIssued       139643                       # Number of squashed instructions issued
system.switch_cpus1.iq.iqSquashedInstsExamined     24376044                       # Number of squashed instructions iterated over during squash; mainly for profiling
system.switch_cpus1.iq.iqSquashedOperandsExamined     50766418                       # Number of squashed operands that are examined and possibly removed from graph
system.switch_cpus1.iq.iqSquashedNonSpecRemoved         4148                       # Number of squashed non-spec instructions that were removed
system.switch_cpus1.iq.issued_per_cycle::samples    216736960                       # Number of insts issued each cycle
system.switch_cpus1.iq.issued_per_cycle::mean     0.631203                       # Number of insts issued each cycle
system.switch_cpus1.iq.issued_per_cycle::stdev     1.302389                       # Number of insts issued each cycle
system.switch_cpus1.iq.issued_per_cycle::underflows            0      0.00%      0.00% # Number of insts issued each cycle
system.switch_cpus1.iq.issued_per_cycle::0    157765391     72.79%     72.79% # Number of insts issued each cycle
system.switch_cpus1.iq.issued_per_cycle::1     25271666     11.66%     84.45% # Number of insts issued each cycle
system.switch_cpus1.iq.issued_per_cycle::2     12251924      5.65%     90.10% # Number of insts issued each cycle
system.switch_cpus1.iq.issued_per_cycle::3      8193916      3.78%     93.88% # Number of insts issued each cycle
system.switch_cpus1.iq.issued_per_cycle::4      7575801      3.50%     97.38% # Number of insts issued each cycle
system.switch_cpus1.iq.issued_per_cycle::5      2550687      1.18%     98.56% # Number of insts issued each cycle
system.switch_cpus1.iq.issued_per_cycle::6      2628593      1.21%     99.77% # Number of insts issued each cycle
system.switch_cpus1.iq.issued_per_cycle::7       372277      0.17%     99.94% # Number of insts issued each cycle
system.switch_cpus1.iq.issued_per_cycle::8       126705      0.06%    100.00% # Number of insts issued each cycle
system.switch_cpus1.iq.issued_per_cycle::overflows            0      0.00%    100.00% # Number of insts issued each cycle
system.switch_cpus1.iq.issued_per_cycle::min_value            0                       # Number of insts issued each cycle
system.switch_cpus1.iq.issued_per_cycle::max_value            8                       # Number of insts issued each cycle
system.switch_cpus1.iq.issued_per_cycle::total    216736960                       # Number of insts issued each cycle
system.switch_cpus1.iq.fu_full::No_OpClass            0      0.00%      0.00% # attempts to use FU when none available
system.switch_cpus1.iq.fu_full::IntAlu         392897     59.25%     59.25% # attempts to use FU when none available
system.switch_cpus1.iq.fu_full::IntMult             0      0.00%     59.25% # attempts to use FU when none available
system.switch_cpus1.iq.fu_full::IntDiv              0      0.00%     59.25% # attempts to use FU when none available
system.switch_cpus1.iq.fu_full::FloatAdd            0      0.00%     59.25% # attempts to use FU when none available
system.switch_cpus1.iq.fu_full::FloatCmp            0      0.00%     59.25% # attempts to use FU when none available
system.switch_cpus1.iq.fu_full::FloatCvt            0      0.00%     59.25% # attempts to use FU when none available
system.switch_cpus1.iq.fu_full::FloatMult            0      0.00%     59.25% # attempts to use FU when none available
system.switch_cpus1.iq.fu_full::FloatDiv            0      0.00%     59.25% # attempts to use FU when none available
system.switch_cpus1.iq.fu_full::FloatSqrt            0      0.00%     59.25% # attempts to use FU when none available
system.switch_cpus1.iq.fu_full::SimdAdd             0      0.00%     59.25% # attempts to use FU when none available
system.switch_cpus1.iq.fu_full::SimdAddAcc            0      0.00%     59.25% # attempts to use FU when none available
system.switch_cpus1.iq.fu_full::SimdAlu             0      0.00%     59.25% # attempts to use FU when none available
system.switch_cpus1.iq.fu_full::SimdCmp             0      0.00%     59.25% # attempts to use FU when none available
system.switch_cpus1.iq.fu_full::SimdCvt             0      0.00%     59.25% # attempts to use FU when none available
system.switch_cpus1.iq.fu_full::SimdMisc            0      0.00%     59.25% # attempts to use FU when none available
system.switch_cpus1.iq.fu_full::SimdMult            0      0.00%     59.25% # attempts to use FU when none available
system.switch_cpus1.iq.fu_full::SimdMultAcc            0      0.00%     59.25% # attempts to use FU when none available
system.switch_cpus1.iq.fu_full::SimdShift            0      0.00%     59.25% # attempts to use FU when none available
system.switch_cpus1.iq.fu_full::SimdShiftAcc            0      0.00%     59.25% # attempts to use FU when none available
system.switch_cpus1.iq.fu_full::SimdSqrt            0      0.00%     59.25% # attempts to use FU when none available
system.switch_cpus1.iq.fu_full::SimdFloatAdd            0      0.00%     59.25% # attempts to use FU when none available
system.switch_cpus1.iq.fu_full::SimdFloatAlu            0      0.00%     59.25% # attempts to use FU when none available
system.switch_cpus1.iq.fu_full::SimdFloatCmp            0      0.00%     59.25% # attempts to use FU when none available
system.switch_cpus1.iq.fu_full::SimdFloatCvt            0      0.00%     59.25% # attempts to use FU when none available
system.switch_cpus1.iq.fu_full::SimdFloatDiv            0      0.00%     59.25% # attempts to use FU when none available
system.switch_cpus1.iq.fu_full::SimdFloatMisc            0      0.00%     59.25% # attempts to use FU when none available
system.switch_cpus1.iq.fu_full::SimdFloatMult            0      0.00%     59.25% # attempts to use FU when none available
system.switch_cpus1.iq.fu_full::SimdFloatMultAcc            0      0.00%     59.25% # attempts to use FU when none available
system.switch_cpus1.iq.fu_full::SimdFloatSqrt            0      0.00%     59.25% # attempts to use FU when none available
system.switch_cpus1.iq.fu_full::MemRead        134151     20.23%     79.48% # attempts to use FU when none available
system.switch_cpus1.iq.fu_full::MemWrite       136057     20.52%    100.00% # attempts to use FU when none available
system.switch_cpus1.iq.fu_full::IprAccess            0      0.00%    100.00% # attempts to use FU when none available
system.switch_cpus1.iq.fu_full::InstPrefetch            0      0.00%    100.00% # attempts to use FU when none available
system.switch_cpus1.iq.FU_type_0::No_OpClass            0      0.00%      0.00% # Type of FU issued
system.switch_cpus1.iq.FU_type_0::IntAlu    114899674     83.99%     83.99% # Type of FU issued
system.switch_cpus1.iq.FU_type_0::IntMult      2073186      1.52%     85.50% # Type of FU issued
system.switch_cpus1.iq.FU_type_0::IntDiv            0      0.00%     85.50% # Type of FU issued
system.switch_cpus1.iq.FU_type_0::FloatAdd            0      0.00%     85.50% # Type of FU issued
system.switch_cpus1.iq.FU_type_0::FloatCmp            0      0.00%     85.50% # Type of FU issued
system.switch_cpus1.iq.FU_type_0::FloatCvt            0      0.00%     85.50% # Type of FU issued
system.switch_cpus1.iq.FU_type_0::FloatMult            0      0.00%     85.50% # Type of FU issued
system.switch_cpus1.iq.FU_type_0::FloatDiv            0      0.00%     85.50% # Type of FU issued
system.switch_cpus1.iq.FU_type_0::FloatSqrt            0      0.00%     85.50% # Type of FU issued
system.switch_cpus1.iq.FU_type_0::SimdAdd            0      0.00%     85.50% # Type of FU issued
system.switch_cpus1.iq.FU_type_0::SimdAddAcc            0      0.00%     85.50% # Type of FU issued
system.switch_cpus1.iq.FU_type_0::SimdAlu            0      0.00%     85.50% # Type of FU issued
system.switch_cpus1.iq.FU_type_0::SimdCmp            0      0.00%     85.50% # Type of FU issued
system.switch_cpus1.iq.FU_type_0::SimdCvt            0      0.00%     85.50% # Type of FU issued
system.switch_cpus1.iq.FU_type_0::SimdMisc            0      0.00%     85.50% # Type of FU issued
system.switch_cpus1.iq.FU_type_0::SimdMult            0      0.00%     85.50% # Type of FU issued
system.switch_cpus1.iq.FU_type_0::SimdMultAcc            0      0.00%     85.50% # Type of FU issued
system.switch_cpus1.iq.FU_type_0::SimdShift            0      0.00%     85.50% # Type of FU issued
system.switch_cpus1.iq.FU_type_0::SimdShiftAcc            0      0.00%     85.50% # Type of FU issued
system.switch_cpus1.iq.FU_type_0::SimdSqrt            0      0.00%     85.50% # Type of FU issued
system.switch_cpus1.iq.FU_type_0::SimdFloatAdd            0      0.00%     85.50% # Type of FU issued
system.switch_cpus1.iq.FU_type_0::SimdFloatAlu            0      0.00%     85.50% # Type of FU issued
system.switch_cpus1.iq.FU_type_0::SimdFloatCmp            0      0.00%     85.50% # Type of FU issued
system.switch_cpus1.iq.FU_type_0::SimdFloatCvt            0      0.00%     85.50% # Type of FU issued
system.switch_cpus1.iq.FU_type_0::SimdFloatDiv            0      0.00%     85.50% # Type of FU issued
system.switch_cpus1.iq.FU_type_0::SimdFloatMisc        16228      0.01%     85.52% # Type of FU issued
system.switch_cpus1.iq.FU_type_0::SimdFloatMult            0      0.00%     85.52% # Type of FU issued
system.switch_cpus1.iq.FU_type_0::SimdFloatMultAcc            0      0.00%     85.52% # Type of FU issued
system.switch_cpus1.iq.FU_type_0::SimdFloatSqrt            0      0.00%     85.52% # Type of FU issued
system.switch_cpus1.iq.FU_type_0::MemRead     12783059      9.34%     94.86% # Type of FU issued
system.switch_cpus1.iq.FU_type_0::MemWrite      7032891      5.14%    100.00% # Type of FU issued
system.switch_cpus1.iq.FU_type_0::IprAccess            0      0.00%    100.00% # Type of FU issued
system.switch_cpus1.iq.FU_type_0::InstPrefetch            0      0.00%    100.00% # Type of FU issued
system.switch_cpus1.iq.FU_type_0::total     136805038                       # Type of FU issued
system.switch_cpus1.iq.rate                  0.574487                       # Inst issue rate
system.switch_cpus1.iq.fu_busy_cnt             663105                       # FU busy when requested
system.switch_cpus1.iq.fu_busy_rate          0.004847                       # FU busy rate (busy events/executed inst)
system.switch_cpus1.iq.int_inst_queue_reads    491149784                       # Number of integer instruction queue reads
system.switch_cpus1.iq.int_inst_queue_writes    170081003                       # Number of integer instruction queue writes
system.switch_cpus1.iq.int_inst_queue_wakeup_accesses    133289472                       # Number of integer instruction queue wakeup accesses
system.switch_cpus1.iq.fp_inst_queue_reads            0                       # Number of floating instruction queue reads
system.switch_cpus1.iq.fp_inst_queue_writes            0                       # Number of floating instruction queue writes
system.switch_cpus1.iq.fp_inst_queue_wakeup_accesses            0                       # Number of floating instruction queue wakeup accesses
system.switch_cpus1.iq.int_alu_accesses     137468143                       # Number of integer alu accesses
system.switch_cpus1.iq.fp_alu_accesses              0                       # Number of floating point alu accesses
system.switch_cpus1.iew.lsq.thread0.forwLoads       342442                       # Number of loads that had data forwarded from stores
system.switch_cpus1.iew.lsq.thread0.invAddrLoads            0                       # Number of loads ignored due to an invalid address
system.switch_cpus1.iew.lsq.thread0.squashedLoads      3223415                       # Number of loads squashed
system.switch_cpus1.iew.lsq.thread0.ignoredResponses          967                       # Number of memory responses ignored because the instruction is squashed
system.switch_cpus1.iew.lsq.thread0.memOrderViolation          472                       # Number of memory ordering violations
system.switch_cpus1.iew.lsq.thread0.squashedStores       193863                       # Number of stores squashed
system.switch_cpus1.iew.lsq.thread0.invAddrSwpfs            0                       # Number of software prefetches ignored due to an invalid address
system.switch_cpus1.iew.lsq.thread0.blockedLoads            0                       # Number of blocked loads due to partial load-store forwarding
system.switch_cpus1.iew.lsq.thread0.rescheduledLoads            1                       # Number of loads that were rescheduled
system.switch_cpus1.iew.lsq.thread0.cacheBlocked            0                       # Number of times an access to memory failed due to the cache being blocked
system.switch_cpus1.iew.iewIdleCycles               0                       # Number of cycles IEW is idle
system.switch_cpus1.iew.iewSquashCycles       3999438                       # Number of cycles IEW is squashing
system.switch_cpus1.iew.iewBlockCycles        1032119                       # Number of cycles IEW is blocking
system.switch_cpus1.iew.iewUnblockCycles        94882                       # Number of cycles IEW is unblocking
system.switch_cpus1.iew.iewDispatchedInsts    145704487                       # Number of instructions dispatched to IQ
system.switch_cpus1.iew.iewDispSquashedInsts        31023                       # Number of squashed instructions skipped by dispatch
system.switch_cpus1.iew.iewDispLoadInsts     14249476                       # Number of dispatched load instructions
system.switch_cpus1.iew.iewDispStoreInsts      7089653                       # Number of dispatched store instructions
system.switch_cpus1.iew.iewDispNonSpecInsts        20376                       # Number of dispatched non-speculative instructions
system.switch_cpus1.iew.iewIQFullEvents         80172                       # Number of times the IQ has become full, causing a stall
system.switch_cpus1.iew.iewLSQFullEvents            2                       # Number of times the LSQ has become full, causing a stall
system.switch_cpus1.iew.memOrderViolationEvents          472                       # Number of memory order violations
system.switch_cpus1.iew.predictedTakenIncorrect      1072974                       # Number of branches that were predicted taken incorrectly
system.switch_cpus1.iew.predictedNotTakenIncorrect      1118120                       # Number of branches that were predicted not taken incorrectly
system.switch_cpus1.iew.branchMispredicts      2191094                       # Number of branch mispredicts detected at execute
system.switch_cpus1.iew.iewExecutedInsts    134308995                       # Number of executed instructions
system.switch_cpus1.iew.iewExecLoadInsts     12343044                       # Number of load instructions executed
system.switch_cpus1.iew.iewExecSquashedInsts      2496043                       # Number of squashed instructions skipped in execute
system.switch_cpus1.iew.exec_swp                    0                       # number of swp insts executed
system.switch_cpus1.iew.exec_nop                    0                       # number of nop insts executed
system.switch_cpus1.iew.exec_refs            19374654                       # number of memory reference insts executed
system.switch_cpus1.iew.exec_branches        19033291                       # Number of branches executed
system.switch_cpus1.iew.exec_stores           7031610                       # Number of stores executed
system.switch_cpus1.iew.exec_rate            0.564006                       # Inst execution rate
system.switch_cpus1.iew.wb_sent             133290204                       # cumulative count of insts sent to commit
system.switch_cpus1.iew.wb_count            133289472                       # cumulative count of insts written-back
system.switch_cpus1.iew.wb_producers         78938393                       # num instructions producing a value
system.switch_cpus1.iew.wb_consumers        217965822                       # num instructions consuming a value
system.switch_cpus1.iew.wb_penalized                0                       # number of instrctions required to write to 'other' IQ
system.switch_cpus1.iew.wb_rate              0.559725                       # insts written-back per cycle
system.switch_cpus1.iew.wb_fanout            0.362159                       # average fanout of values written-back
system.switch_cpus1.iew.wb_penalized_rate            0                       # fraction of instructions written-back that wrote to 'other' IQ
system.switch_cpus1.commit.commitCommittedInsts     98148271                       # The number of committed instructions
system.switch_cpus1.commit.commitCommittedOps    120535579                       # The number of committed instructions
system.switch_cpus1.commit.commitSquashedInsts     25169923                       # The number of squashed insts skipped by commit
system.switch_cpus1.commit.commitNonSpecStalls        32456                       # The number of times commit has been forced to stall to communicate backwards
system.switch_cpus1.commit.branchMispredicts      1976154                       # The number of times a branch was mispredicted
system.switch_cpus1.commit.committed_per_cycle::samples    212737522                       # Number of insts commited each cycle
system.switch_cpus1.commit.committed_per_cycle::mean     0.566593                       # Number of insts commited each cycle
system.switch_cpus1.commit.committed_per_cycle::stdev     1.371239                       # Number of insts commited each cycle
system.switch_cpus1.commit.committed_per_cycle::underflows            0      0.00%      0.00% # Number of insts commited each cycle
system.switch_cpus1.commit.committed_per_cycle::0    162127933     76.21%     76.21% # Number of insts commited each cycle
system.switch_cpus1.commit.committed_per_cycle::1     23813727     11.19%     87.40% # Number of insts commited each cycle
system.switch_cpus1.commit.committed_per_cycle::2     10397689      4.89%     92.29% # Number of insts commited each cycle
system.switch_cpus1.commit.committed_per_cycle::3      5913527      2.78%     95.07% # Number of insts commited each cycle
system.switch_cpus1.commit.committed_per_cycle::4      4278744      2.01%     97.08% # Number of insts commited each cycle
system.switch_cpus1.commit.committed_per_cycle::5      1681867      0.79%     97.87% # Number of insts commited each cycle
system.switch_cpus1.commit.committed_per_cycle::6      1296729      0.61%     98.48% # Number of insts commited each cycle
system.switch_cpus1.commit.committed_per_cycle::7       937240      0.44%     98.92% # Number of insts commited each cycle
system.switch_cpus1.commit.committed_per_cycle::8      2290066      1.08%    100.00% # Number of insts commited each cycle
system.switch_cpus1.commit.committed_per_cycle::overflows            0      0.00%    100.00% # Number of insts commited each cycle
system.switch_cpus1.commit.committed_per_cycle::min_value            0                       # Number of insts commited each cycle
system.switch_cpus1.commit.committed_per_cycle::max_value            8                       # Number of insts commited each cycle
system.switch_cpus1.commit.committed_per_cycle::total    212737522                       # Number of insts commited each cycle
system.switch_cpus1.commit.committedInsts     98148271                       # Number of instructions committed
system.switch_cpus1.commit.committedOps     120535579                       # Number of ops (including micro ops) committed
system.switch_cpus1.commit.swp_count                0                       # Number of s/w prefetches committed
system.switch_cpus1.commit.refs              17921829                       # Number of memory references committed
[...]
system.cpu2.icache.overall_accesses::switch_cpus2.inst     11277325                       # number of overall (read+write) accesses
system.cpu2.icache.overall_accesses::total     11277325                       # number of overall (read+write) accesses
system.cpu2.icache.ReadReq_miss_rate::switch_cpus2.inst     0.000001                       # miss rate for ReadReq accesses
system.cpu2.icache.ReadReq_miss_rate::total     0.000001                       # miss rate for ReadReq accesses
system.cpu2.icache.demand_miss_rate::switch_cpus2.inst     0.000001                       # miss rate for demand accesses
system.cpu2.icache.demand_miss_rate::total     0.000001                       # miss rate for demand accesses
system.cpu2.icache.overall_miss_rate::switch_cpus2.inst     0.000001                       # miss rate for overall accesses
system.cpu2.icache.overall_miss_rate::total     0.000001                       # miss rate for overall accesses
system.cpu2.icache.ReadReq_avg_miss_latency::switch_cpus2.inst 257485.750000                       # average ReadReq miss latency
system.cpu2.icache.ReadReq_avg_miss_latency::total 257485.750000                       # average ReadReq miss latency
system.cpu2.icache.demand_avg_miss_latency::switch_cpus2.inst 257485.750000                       # average overall miss latency
system.cpu2.icache.demand_avg_miss_latency::total 257485.750000                       # average overall miss latency
system.cpu2.icache.overall_avg_miss_latency::switch_cpus2.inst 257485.750000                       # average overall miss latency
system.cpu2.icache.overall_avg_miss_latency::total 257485.750000                       # average overall miss latency
system.cpu2.icache.blocked_cycles::no_mshrs            0                       # number of cycles access was blocked
system.cpu2.icache.blocked_cycles::no_targets            0                       # number of cycles access was blocked
system.cpu2.icache.blocked::no_mshrs                0                       # number of cycles access was blocked
system.cpu2.icache.blocked::no_targets              0                       # number of cycles access was blocked
system.cpu2.icache.avg_blocked_cycles::no_mshrs          nan                       # average number of cycles each access was blocked
system.cpu2.icache.avg_blocked_cycles::no_targets          nan                       # average number of cycles each access was blocked
system.cpu2.icache.fast_writes                      0                       # number of fast writes performed
system.cpu2.icache.cache_copies                     0                       # number of cache copies performed
system.cpu2.icache.ReadReq_mshr_hits::switch_cpus2.inst            1                       # number of ReadReq MSHR hits
system.cpu2.icache.ReadReq_mshr_hits::total            1                       # number of ReadReq MSHR hits
system.cpu2.icache.demand_mshr_hits::switch_cpus2.inst            1                       # number of demand (read+write) MSHR hits
system.cpu2.icache.demand_mshr_hits::total            1                       # number of demand (read+write) MSHR hits
system.cpu2.icache.overall_mshr_hits::switch_cpus2.inst            1                       # number of overall MSHR hits
system.cpu2.icache.overall_mshr_hits::total            1                       # number of overall MSHR hits
system.cpu2.icache.ReadReq_mshr_misses::switch_cpus2.inst           11                       # number of ReadReq MSHR misses
system.cpu2.icache.ReadReq_mshr_misses::total           11                       # number of ReadReq MSHR misses
system.cpu2.icache.demand_mshr_misses::switch_cpus2.inst           11                       # number of demand (read+write) MSHR misses
system.cpu2.icache.demand_mshr_misses::total           11                       # number of demand (read+write) MSHR misses
system.cpu2.icache.overall_mshr_misses::switch_cpus2.inst           11                       # number of overall MSHR misses
system.cpu2.icache.overall_mshr_misses::total           11                       # number of overall MSHR misses
system.cpu2.icache.ReadReq_mshr_miss_latency::switch_cpus2.inst      2736082                       # number of ReadReq MSHR miss cycles
system.cpu2.icache.ReadReq_mshr_miss_latency::total      2736082                       # number of ReadReq MSHR miss cycles
system.cpu2.icache.demand_mshr_miss_latency::switch_cpus2.inst      2736082                       # number of demand (read+write) MSHR miss cycles
system.cpu2.icache.demand_mshr_miss_latency::total      2736082                       # number of demand (read+write) MSHR miss cycles
system.cpu2.icache.overall_mshr_miss_latency::switch_cpus2.inst      2736082                       # number of overall MSHR miss cycles
system.cpu2.icache.overall_mshr_miss_latency::total      2736082                       # number of overall MSHR miss cycles
system.cpu2.icache.ReadReq_mshr_miss_rate::switch_cpus2.inst     0.000001                       # mshr miss rate for ReadReq accesses
system.cpu2.icache.ReadReq_mshr_miss_rate::total     0.000001                       # mshr miss rate for ReadReq accesses
system.cpu2.icache.demand_mshr_miss_rate::switch_cpus2.inst     0.000001                       # mshr miss rate for demand accesses
system.cpu2.icache.demand_mshr_miss_rate::total     0.000001                       # mshr miss rate for demand accesses
system.cpu2.icache.overall_mshr_miss_rate::switch_cpus2.inst     0.000001                       # mshr miss rate for overall accesses
system.cpu2.icache.overall_mshr_miss_rate::total     0.000001                       # mshr miss rate for overall accesses
system.cpu2.icache.ReadReq_avg_mshr_miss_latency::switch_cpus2.inst 248734.727273                       # average ReadReq mshr miss latency
system.cpu2.icache.ReadReq_avg_mshr_miss_latency::total 248734.727273                       # average ReadReq mshr miss latency
system.cpu2.icache.demand_avg_mshr_miss_latency::switch_cpus2.inst 248734.727273                       # average overall mshr miss latency
system.cpu2.icache.demand_avg_mshr_miss_latency::total 248734.727273                       # average overall mshr miss latency
system.cpu2.icache.overall_avg_mshr_miss_latency::switch_cpus2.inst 248734.727273                       # average overall mshr miss latency
system.cpu2.icache.overall_avg_mshr_miss_latency::total 248734.727273                       # average overall mshr miss latency
system.cpu2.icache.no_allocate_misses               0                       # Number of misses that were no-allocate
system.cpu2.dcache.replacements                 90520                       # number of replacements
system.cpu2.dcache.tagsinuse                      256                       # Cycle average of tags in use
system.cpu2.dcache.total_refs               189643812                       # Total number of references to valid blocks.
system.cpu2.dcache.sampled_refs                 90776                       # Sample count of references to valid blocks.
system.cpu2.dcache.avg_refs               2089.140434                       # Average number of references to valid blocks.
system.cpu2.dcache.warmup_cycle                     0                       # Cycle when the warmup percentage was hit.
system.cpu2.dcache.occ_blocks::switch_cpus2.data   234.603772                       # Average occupied blocks per requestor
system.cpu2.dcache.occ_blocks::cpu2.data    21.396228                       # Average occupied blocks per requestor
system.cpu2.dcache.occ_percent::switch_cpus2.data     0.916421                       # Average percentage of cache occupancy
system.cpu2.dcache.occ_percent::cpu2.data     0.083579                       # Average percentage of cache occupancy
system.cpu2.dcache.occ_percent::total               1                       # Average percentage of cache occupancy
system.cpu2.dcache.ReadReq_hits::switch_cpus2.data      9896331                       # number of ReadReq hits
system.cpu2.dcache.ReadReq_hits::total        9896331                       # number of ReadReq hits
system.cpu2.dcache.WriteReq_hits::switch_cpus2.data      7316731                       # number of WriteReq hits
system.cpu2.dcache.WriteReq_hits::total       7316731                       # number of WriteReq hits
system.cpu2.dcache.LoadLockedReq_hits::switch_cpus2.data        15703                       # number of LoadLockedReq hits
system.cpu2.dcache.LoadLockedReq_hits::total        15703                       # number of LoadLockedReq hits
system.cpu2.dcache.StoreCondReq_hits::switch_cpus2.data        15378                       # number of StoreCondReq hits
system.cpu2.dcache.StoreCondReq_hits::total        15378                       # number of StoreCondReq hits
system.cpu2.dcache.demand_hits::switch_cpus2.data     17213062                       # number of demand (read+write) hits
system.cpu2.dcache.demand_hits::total        17213062                       # number of demand (read+write) hits
system.cpu2.dcache.overall_hits::switch_cpus2.data     17213062                       # number of overall hits
system.cpu2.dcache.overall_hits::total       17213062                       # number of overall hits
system.cpu2.dcache.ReadReq_misses::switch_cpus2.data       376367                       # number of ReadReq misses
system.cpu2.dcache.ReadReq_misses::total       376367                       # number of ReadReq misses
system.cpu2.dcache.WriteReq_misses::switch_cpus2.data           60                       # number of WriteReq misses
system.cpu2.dcache.WriteReq_misses::total           60                       # number of WriteReq misses
system.cpu2.dcache.demand_misses::switch_cpus2.data       376427                       # number of demand (read+write) misses
system.cpu2.dcache.demand_misses::total        376427                       # number of demand (read+write) misses
system.cpu2.dcache.overall_misses::switch_cpus2.data       376427                       # number of overall misses
system.cpu2.dcache.overall_misses::total       376427                       # number of overall misses
system.cpu2.dcache.ReadReq_miss_latency::switch_cpus2.data  38406043585                       # number of ReadReq miss cycles
system.cpu2.dcache.ReadReq_miss_latency::total  38406043585                       # number of ReadReq miss cycles
system.cpu2.dcache.WriteReq_miss_latency::switch_cpus2.data      8220027                       # number of WriteReq miss cycles
system.cpu2.dcache.WriteReq_miss_latency::total      8220027                       # number of WriteReq miss cycles
system.cpu2.dcache.demand_miss_latency::switch_cpus2.data  38414263612                       # number of demand (read+write) miss cycles
system.cpu2.dcache.demand_miss_latency::total  38414263612                       # number of demand (read+write) miss cycles
system.cpu2.dcache.overall_miss_latency::switch_cpus2.data  38414263612                       # number of overall miss cycles
system.cpu2.dcache.overall_miss_latency::total  38414263612                       # number of overall miss cycles
system.cpu2.dcache.ReadReq_accesses::switch_cpus2.data     10272698                       # number of ReadReq accesses(hits+misses)
system.cpu2.dcache.ReadReq_accesses::total     10272698                       # number of ReadReq accesses(hits+misses)
system.cpu2.dcache.WriteReq_accesses::switch_cpus2.data      7316791                       # number of WriteReq accesses(hits+misses)
system.cpu2.dcache.WriteReq_accesses::total      7316791                       # number of WriteReq accesses(hits+misses)
system.cpu2.dcache.LoadLockedReq_accesses::switch_cpus2.data        15703                       # number of LoadLockedReq accesses(hits+misses)
system.cpu2.dcache.LoadLockedReq_accesses::total        15703                       # number of LoadLockedReq accesses(hits+misses)
system.cpu2.dcache.StoreCondReq_accesses::switch_cpus2.data        15378                       # number of StoreCondReq accesses(hits+misses)
system.cpu2.dcache.StoreCondReq_accesses::total        15378                       # number of StoreCondReq accesses(hits+misses)
system.cpu2.dcache.demand_accesses::switch_cpus2.data     17589489                       # number of demand (read+write) accesses
system.cpu2.dcache.demand_accesses::total     17589489                       # number of demand (read+write) accesses
system.cpu2.dcache.overall_accesses::switch_cpus2.data     17589489                       # number of overall (read+write) accesses
system.cpu2.dcache.overall_accesses::total     17589489                       # number of overall (read+write) accesses
system.cpu2.dcache.ReadReq_miss_rate::switch_cpus2.data     0.036638                       # miss rate for ReadReq accesses
system.cpu2.dcache.ReadReq_miss_rate::total     0.036638                       # miss rate for ReadReq accesses
system.cpu2.dcache.WriteReq_miss_rate::switch_cpus2.data     0.000008                       # miss rate for WriteReq accesses
system.cpu2.dcache.WriteReq_miss_rate::total     0.000008                       # miss rate for WriteReq accesses
system.cpu2.dcache.demand_miss_rate::switch_cpus2.data     0.021401                       # miss rate for demand accesses
system.cpu2.dcache.demand_miss_rate::total     0.021401                       # miss rate for demand accesses
system.cpu2.dcache.overall_miss_rate::switch_cpus2.data     0.021401                       # miss rate for overall accesses
system.cpu2.dcache.overall_miss_rate::total     0.021401                       # miss rate for overall accesses
system.cpu2.dcache.ReadReq_avg_miss_latency::switch_cpus2.data 102044.131353                       # average ReadReq miss latency
system.cpu2.dcache.ReadReq_avg_miss_latency::total 102044.131353                       # average ReadReq miss latency
system.cpu2.dcache.WriteReq_avg_miss_latency::switch_cpus2.data 137000.450000                       # average WriteReq miss latency
system.cpu2.dcache.WriteReq_avg_miss_latency::total 137000.450000                       # average WriteReq miss latency
system.cpu2.dcache.demand_avg_miss_latency::switch_cpus2.data 102049.703162                       # average overall miss latency
system.cpu2.dcache.demand_avg_miss_latency::total 102049.703162                       # average overall miss latency
system.cpu2.dcache.overall_avg_miss_latency::switch_cpus2.data 102049.703162                       # average overall miss latency
system.cpu2.dcache.overall_avg_miss_latency::total 102049.703162                       # average overall miss latency
system.cpu2.dcache.blocked_cycles::no_mshrs            0                       # number of cycles access was blocked
system.cpu2.dcache.blocked_cycles::no_targets            0                       # number of cycles access was blocked
system.cpu2.dcache.blocked::no_mshrs                0                       # number of cycles access was blocked
system.cpu2.dcache.blocked::no_targets              0                       # number of cycles access was blocked
system.cpu2.dcache.avg_blocked_cycles::no_mshrs          nan                       # average number of cycles each access was blocked
system.cpu2.dcache.avg_blocked_cycles::no_targets          nan                       # average number of cycles each access was blocked
system.cpu2.dcache.fast_writes                      0                       # number of fast writes performed
system.cpu2.dcache.cache_copies                     0                       # number of cache copies performed
system.cpu2.dcache.writebacks::writebacks        17723                       # number of writebacks
system.cpu2.dcache.writebacks::total            17723                       # number of writebacks
system.cpu2.dcache.ReadReq_mshr_hits::switch_cpus2.data       285847                       # number of ReadReq MSHR hits
system.cpu2.dcache.ReadReq_mshr_hits::total       285847                       # number of ReadReq MSHR hits
system.cpu2.dcache.WriteReq_mshr_hits::switch_cpus2.data           60                       # number of WriteReq MSHR hits
system.cpu2.dcache.WriteReq_mshr_hits::total           60                       # number of WriteReq MSHR hits
system.cpu2.dcache.demand_mshr_hits::switch_cpus2.data       285907                       # number of demand (read+write) MSHR hits
system.cpu2.dcache.demand_mshr_hits::total       285907                       # number of demand (read+write) MSHR hits
system.cpu2.dcache.overall_mshr_hits::switch_cpus2.data       285907                       # number of overall MSHR hits
system.cpu2.dcache.overall_mshr_hits::total       285907                       # number of overall MSHR hits
system.cpu2.dcache.ReadReq_mshr_misses::switch_cpus2.data        90520                       # number of ReadReq MSHR misses
system.cpu2.dcache.ReadReq_mshr_misses::total        90520                       # number of ReadReq MSHR misses
system.cpu2.dcache.demand_mshr_misses::switch_cpus2.data        90520                       # number of demand (read+write) MSHR misses
system.cpu2.dcache.demand_mshr_misses::total        90520                       # number of demand (read+write) MSHR misses
system.cpu2.dcache.overall_mshr_misses::switch_cpus2.data        90520                       # number of overall MSHR misses
system.cpu2.dcache.overall_mshr_misses::total        90520                       # number of overall MSHR misses
system.cpu2.dcache.ReadReq_mshr_miss_latency::switch_cpus2.data   8719105391                       # number of ReadReq MSHR miss cycles
system.cpu2.dcache.ReadReq_mshr_miss_latency::total   8719105391                       # number of ReadReq MSHR miss cycles
system.cpu2.dcache.demand_mshr_miss_latency::switch_cpus2.data   8719105391                       # number of demand (read+write) MSHR miss cycles
system.cpu2.dcache.demand_mshr_miss_latency::total   8719105391                       # number of demand (read+write) MSHR miss cycles
system.cpu2.dcache.overall_mshr_miss_latency::switch_cpus2.data   8719105391                       # number of overall MSHR miss cycles
system.cpu2.dcache.overall_mshr_miss_latency::total   8719105391                       # number of overall MSHR miss cycles
system.cpu2.dcache.ReadReq_mshr_miss_rate::switch_cpus2.data     0.008812                       # mshr miss rate for ReadReq accesses
system.cpu2.dcache.ReadReq_mshr_miss_rate::total     0.008812                       # mshr miss rate for ReadReq accesses
system.cpu2.dcache.demand_mshr_miss_rate::switch_cpus2.data     0.005146                       # mshr miss rate for demand accesses
system.cpu2.dcache.demand_mshr_miss_rate::total     0.005146                       # mshr miss rate for demand accesses
system.cpu2.dcache.overall_mshr_miss_rate::switch_cpus2.data     0.005146                       # mshr miss rate for overall accesses
system.cpu2.dcache.overall_mshr_miss_rate::total     0.005146                       # mshr miss rate for overall accesses
system.cpu2.dcache.ReadReq_avg_mshr_miss_latency::switch_cpus2.data 96322.419255                       # average ReadReq mshr miss latency
system.cpu2.dcache.ReadReq_avg_mshr_miss_latency::total 96322.419255                       # average ReadReq mshr miss latency
system.cpu2.dcache.demand_avg_mshr_miss_latency::switch_cpus2.data 96322.419255                       # average overall mshr miss latency
system.cpu2.dcache.demand_avg_mshr_miss_latency::total 96322.419255                       # average overall mshr miss latency
system.cpu2.dcache.overall_avg_mshr_miss_latency::switch_cpus2.data 96322.419255                       # average overall mshr miss latency
system.cpu2.dcache.overall_avg_mshr_miss_latency::total 96322.419255                       # average overall mshr miss latency
system.cpu2.dcache.no_allocate_misses               0                       # Number of misses that were no-allocate

---------- End Simulation Statistics   ----------
