
---------- Begin Simulation Statistics ----------
sim_seconds                                  0.035081                       # Number of seconds simulated
sim_ticks                                 35081273418                       # Number of ticks simulated
final_tick                               561385323426                       # Number of ticks from beginning of simulation (restored from checkpoints and never reset)
sim_freq                                 1000000000000                       # Frequency of simulated ticks
host_inst_rate                                 255721                       # Simulator instruction rate (inst/s)
host_op_rate                                   322452                       # Simulator op (including micro ops) rate (op/s)
host_tick_rate                                2728165                       # Simulator tick rate (ticks/s)
host_mem_usage                               16908920                       # Number of bytes of host memory used
host_seconds                                 12858.93                       # Real time elapsed on the host
sim_insts                                  3288296914                       # Number of instructions simulated
sim_ops                                    4146390430                       # Number of ops (including micro ops) simulated
system.physmem.bytes_read::switch_cpus0.inst         2048                       # Number of bytes read from this memory
system.physmem.bytes_read::switch_cpus0.data       511488                       # Number of bytes read from this memory
system.physmem.bytes_read::switch_cpus1.inst         1792                       # Number of bytes read from this memory
system.physmem.bytes_read::switch_cpus1.data      1108992                       # Number of bytes read from this memory
system.physmem.bytes_read::switch_cpus2.inst         1792                       # Number of bytes read from this memory
system.physmem.bytes_read::switch_cpus2.data      2136704                       # Number of bytes read from this memory
system.physmem.bytes_read::total              3762816                       # Number of bytes read from this memory
system.physmem.bytes_inst_read::switch_cpus0.inst         2048                       # Number of instructions bytes read from this memory
system.physmem.bytes_inst_read::switch_cpus1.inst         1792                       # Number of instructions bytes read from this memory
system.physmem.bytes_inst_read::switch_cpus2.inst         1792                       # Number of instructions bytes read from this memory
system.physmem.bytes_inst_read::total            5632                       # Number of instructions bytes read from this memory
system.physmem.bytes_written::writebacks      1496704                       # Number of bytes written to this memory
system.physmem.bytes_written::total           1496704                       # Number of bytes written to this memory
system.physmem.num_reads::switch_cpus0.inst           16                       # Number of read requests responded to by this memory
system.physmem.num_reads::switch_cpus0.data         3996                       # Number of read requests responded to by this memory
system.physmem.num_reads::switch_cpus1.inst           14                       # Number of read requests responded to by this memory
system.physmem.num_reads::switch_cpus1.data         8664                       # Number of read requests responded to by this memory
system.physmem.num_reads::switch_cpus2.inst           14                       # Number of read requests responded to by this memory
system.physmem.num_reads::switch_cpus2.data        16693                       # Number of read requests responded to by this memory
system.physmem.num_reads::total                 29397                       # Number of read requests responded to by this memory
system.physmem.num_writes::writebacks           11693                       # Number of write requests responded to by this memory
system.physmem.num_writes::functional               0                       # Number of write requests responded to by this memory
system.physmem.num_writes::interrupt                0                       # Number of write requests responded to by this memory
system.physmem.num_writes::switch_cpus0.dtb.walker            0                       # Number of write requests responded to by this memory
system.physmem.num_writes::switch_cpus0.itb.walker            0                       # Number of write requests responded to by this memory
system.physmem.num_writes::switch_cpus0.inst            0                       # Number of write requests responded to by this memory
system.physmem.num_writes::switch_cpus0.data            0                       # Number of write requests responded to by this memory
system.physmem.num_writes::switch_cpus1.dtb.walker            0                       # Number of write requests responded to by this memory
system.physmem.num_writes::switch_cpus1.itb.walker            0                       # Number of write requests responded to by this memory
system.physmem.num_writes::switch_cpus1.inst            0                       # Number of write requests responded to by this memory
system.physmem.num_writes::switch_cpus1.data            0                       # Number of write requests responded to by this memory
system.physmem.num_writes::switch_cpus2.dtb.walker            0                       # Number of write requests responded to by this memory
system.physmem.num_writes::switch_cpus2.itb.walker            0                       # Number of write requests responded to by this memory
system.physmem.num_writes::switch_cpus2.inst            0                       # Number of write requests responded to by this memory
system.physmem.num_writes::switch_cpus2.data            0                       # Number of write requests responded to by this memory
system.physmem.num_writes::cpu0.dtb.walker            0                       # Number of write requests responded to by this memory
system.physmem.num_writes::cpu0.itb.walker            0                       # Number of write requests responded to by this memory
system.physmem.num_writes::cpu0.inst                0                       # Number of write requests responded to by this memory
system.physmem.num_writes::cpu0.data                0                       # Number of write requests responded to by this memory
system.physmem.num_writes::cpu1.dtb.walker            0                       # Number of write requests responded to by this memory
system.physmem.num_writes::cpu1.itb.walker            0                       # Number of write requests responded to by this memory
system.physmem.num_writes::cpu1.inst                0                       # Number of write requests responded to by this memory
system.physmem.num_writes::cpu1.data                0                       # Number of write requests responded to by this memory
system.physmem.num_writes::cpu2.dtb.walker            0                       # Number of write requests responded to by this memory
system.physmem.num_writes::cpu2.itb.walker            0                       # Number of write requests responded to by this memory
system.physmem.num_writes::cpu2.inst                0                       # Number of write requests responded to by this memory
system.physmem.num_writes::cpu2.data                0                       # Number of write requests responded to by this memory
system.physmem.num_writes::total                11693                       # Number of write requests responded to by this memory
system.physmem.bw_read::switch_cpus0.inst        58379                       # Total read bandwidth from this memory (bytes/s)
system.physmem.bw_read::switch_cpus0.data     14580086                       # Total read bandwidth from this memory (bytes/s)
system.physmem.bw_read::switch_cpus1.inst        51081                       # Total read bandwidth from this memory (bytes/s)
system.physmem.bw_read::switch_cpus1.data     31612079                       # Total read bandwidth from this memory (bytes/s)
system.physmem.bw_read::switch_cpus2.inst        51081                       # Total read bandwidth from this memory (bytes/s)
system.physmem.bw_read::switch_cpus2.data     60907253                       # Total read bandwidth from this memory (bytes/s)
system.physmem.bw_read::total               107259960                       # Total read bandwidth from this memory (bytes/s)
system.physmem.bw_inst_read::switch_cpus0.inst        58379                       # Instruction read bandwidth from this memory (bytes/s)
system.physmem.bw_inst_read::switch_cpus1.inst        51081                       # Instruction read bandwidth from this memory (bytes/s)
system.physmem.bw_inst_read::switch_cpus2.inst        51081                       # Instruction read bandwidth from this memory (bytes/s)
system.physmem.bw_inst_read::total             160541                       # Instruction read bandwidth from this memory (bytes/s)
system.physmem.bw_write::writebacks          42663902                       # Write bandwidth from this memory (bytes/s)
system.physmem.bw_write::total               42663902                       # Write bandwidth from this memory (bytes/s)
system.physmem.bw_total::writebacks          42663902                       # Total bandwidth to/from this memory (bytes/s)
system.physmem.bw_total::switch_cpus0.inst        58379                       # Total bandwidth to/from this memory (bytes/s)
system.physmem.bw_total::switch_cpus0.data     14580086                       # Total bandwidth to/from this memory (bytes/s)
system.physmem.bw_total::switch_cpus1.inst        51081                       # Total bandwidth to/from this memory (bytes/s)
system.physmem.bw_total::switch_cpus1.data     31612079                       # Total bandwidth to/from this memory (bytes/s)
system.physmem.bw_total::switch_cpus2.inst        51081                       # Total bandwidth to/from this memory (bytes/s)
system.physmem.bw_total::switch_cpus2.data     60907253                       # Total bandwidth to/from this memory (bytes/s)
system.physmem.bw_total::total              149923862                       # Total bandwidth to/from this memory (bytes/s)
system.switch_cpus0.dtb.inst_hits                   0                       # ITB inst hits
system.switch_cpus0.dtb.inst_misses                 0                       # ITB inst misses
system.switch_cpus0.dtb.read_hits                   0                       # DTB read hits
system.switch_cpus0.dtb.read_misses                 0                       # DTB read misses
system.switch_cpus0.dtb.write_hits                  0                       # DTB write hits
system.switch_cpus0.dtb.write_misses                0                       # DTB write misses
system.switch_cpus0.dtb.flush_tlb                   0                       # Number of times complete TLB was flushed
system.switch_cpus0.dtb.flush_tlb_mva               0                       # Number of times TLB was flushed by MVA
system.switch_cpus0.dtb.flush_tlb_mva_asid            0                       # Number of times TLB was flushed by MVA & ASID
system.switch_cpus0.dtb.flush_tlb_asid              0                       # Number of times TLB was flushed by ASID
system.switch_cpus0.dtb.flush_entries               0                       # Number of entries that have been flushed from TLB
system.switch_cpus0.dtb.align_faults                0                       # Number of TLB faults due to alignment restrictions
system.switch_cpus0.dtb.prefetch_faults             0                       # Number of TLB faults due to prefetch
system.switch_cpus0.dtb.domain_faults               0                       # Number of TLB faults due to domain restrictions
system.switch_cpus0.dtb.perms_faults                0                       # Number of TLB faults due to permissions restrictions
system.switch_cpus0.dtb.read_accesses               0                       # DTB read accesses
system.switch_cpus0.dtb.write_accesses              0                       # DTB write accesses
system.switch_cpus0.dtb.inst_accesses               0                       # ITB inst accesses
system.switch_cpus0.dtb.hits                        0                       # DTB hits
system.switch_cpus0.dtb.misses                      0                       # DTB misses
system.switch_cpus0.dtb.accesses                    0                       # DTB accesses
system.switch_cpus0.itb.inst_hits                   0                       # ITB inst hits
system.switch_cpus0.itb.inst_misses                 0                       # ITB inst misses
system.switch_cpus0.itb.read_hits                   0                       # DTB read hits
system.switch_cpus0.itb.read_misses                 0                       # DTB read misses
system.switch_cpus0.itb.write_hits                  0                       # DTB write hits
system.switch_cpus0.itb.write_misses                0                       # DTB write misses
system.switch_cpus0.itb.flush_tlb                   0                       # Number of times complete TLB was flushed
system.switch_cpus0.itb.flush_tlb_mva               0                       # Number of times TLB was flushed by MVA
system.switch_cpus0.itb.flush_tlb_mva_asid            0                       # Number of times TLB was flushed by MVA & ASID
system.switch_cpus0.itb.flush_tlb_asid              0                       # Number of times TLB was flushed by ASID
system.switch_cpus0.itb.flush_entries               0                       # Number of entries that have been flushed from TLB
system.switch_cpus0.itb.align_faults                0                       # Number of TLB faults due to alignment restrictions
system.switch_cpus0.itb.prefetch_faults             0                       # Number of TLB faults due to prefetch
system.switch_cpus0.itb.domain_faults               0                       # Number of TLB faults due to domain restrictions
system.switch_cpus0.itb.perms_faults                0                       # Number of TLB faults due to permissions restrictions
system.switch_cpus0.itb.read_accesses               0                       # DTB read accesses
system.switch_cpus0.itb.write_accesses              0                       # DTB write accesses
system.switch_cpus0.itb.inst_accesses               0                       # ITB inst accesses
system.switch_cpus0.itb.hits                        0                       # DTB hits
system.switch_cpus0.itb.misses                      0                       # DTB misses
system.switch_cpus0.itb.accesses                    0                       # DTB accesses
system.cpu0.workload.num_syscalls                   0                       # Number of system calls
system.switch_cpus0.numCycles                84127755                       # number of cpu cycles simulated
system.switch_cpus0.numWorkItemsStarted             0                       # number of work items this cpu started
system.switch_cpus0.numWorkItemsCompleted            0                       # number of work items this cpu completed
system.switch_cpus0.BPredUnit.lookups        31517765                       # Number of BP lookups
system.switch_cpus0.BPredUnit.condPredicted     25713343                       # Number of conditional branches predicted
system.switch_cpus0.BPredUnit.condIncorrect      2102451                       # Number of conditional branches incorrect
system.switch_cpus0.BPredUnit.BTBLookups     13456485                       # Number of BTB lookups
system.switch_cpus0.BPredUnit.BTBHits        12440357                       # Number of BTB hits
system.switch_cpus0.BPredUnit.BTBCorrect            0                       # Number of correct BTB predictions (this stat may not work properly.
system.switch_cpus0.BPredUnit.usedRAS         3261199                       # Number of times the RAS was used to get a target.
system.switch_cpus0.BPredUnit.RASInCorrect        92684                       # Number of incorrect RAS predictions.
system.switch_cpus0.fetch.icacheStallCycles     32666266                       # Number of cycles fetch is stalled on an Icache miss
system.switch_cpus0.fetch.Insts             171235366                       # Number of instructions fetch has processed
system.switch_cpus0.fetch.Branches           31517765                       # Number of branches that fetch encountered
system.switch_cpus0.fetch.predictedBranches     15701556                       # Number of branches that fetch has predicted taken
system.switch_cpus0.fetch.Cycles             37130127                       # Number of cycles fetch has run and was not squashing or blocked
system.switch_cpus0.fetch.SquashCycles       10967954                       # Number of cycles fetch has spent squashing
system.switch_cpus0.fetch.BlockedCycles       5202158                       # Number of cycles fetch has spent blocked
system.switch_cpus0.fetch.PendingTrapStallCycles           44                       # Number of stall cycles due to pending traps
system.switch_cpus0.fetch.CacheLines         15902401                       # Number of cache lines fetched
system.switch_cpus0.fetch.IcacheSquashes       807052                       # Number of outstanding Icache misses that were squashed
system.switch_cpus0.fetch.rateDist::samples     83846698                       # Number of instructions fetched each cycle (Total)
system.switch_cpus0.fetch.rateDist::mean     2.525548                       # Number of instructions fetched each cycle (Total)
system.switch_cpus0.fetch.rateDist::stdev     3.334491                       # Number of instructions fetched each cycle (Total)
system.switch_cpus0.fetch.rateDist::underflows            0      0.00%      0.00% # Number of instructions fetched each cycle (Total)
system.switch_cpus0.fetch.rateDist::0        46716571     55.72%     55.72% # Number of instructions fetched each cycle (Total)
system.switch_cpus0.fetch.rateDist::1         3028274      3.61%     59.33% # Number of instructions fetched each cycle (Total)
system.switch_cpus0.fetch.rateDist::2         4572626      5.45%     64.78% # Number of instructions fetched each cycle (Total)
system.switch_cpus0.fetch.rateDist::3         3166357      3.78%     68.56% # Number of instructions fetched each cycle (Total)
system.switch_cpus0.fetch.rateDist::4         2219442      2.65%     71.21% # Number of instructions fetched each cycle (Total)
system.switch_cpus0.fetch.rateDist::5         2173136      2.59%     73.80% # Number of instructions fetched each cycle (Total)
system.switch_cpus0.fetch.rateDist::6         1311448      1.56%     75.36% # Number of instructions fetched each cycle (Total)
system.switch_cpus0.fetch.rateDist::7         2796590      3.34%     78.70% # Number of instructions fetched each cycle (Total)
system.switch_cpus0.fetch.rateDist::8        17862254     21.30%    100.00% # Number of instructions fetched each cycle (Total)
system.switch_cpus0.fetch.rateDist::overflows            0      0.00%    100.00% # Number of instructions fetched each cycle (Total)
system.switch_cpus0.fetch.rateDist::min_value            0                       # Number of instructions fetched each cycle (Total)
system.switch_cpus0.fetch.rateDist::max_value            8                       # Number of instructions fetched each cycle (Total)
system.switch_cpus0.fetch.rateDist::total     83846698                       # Number of instructions fetched each cycle (Total)
system.switch_cpus0.fetch.branchRate         0.374642                       # Number of branch fetches per cycle
system.switch_cpus0.fetch.rate               2.035421                       # Number of inst fetches per cycle
system.switch_cpus0.decode.IdleCycles        33598964                       # Number of cycles decode is idle
system.switch_cpus0.decode.BlockedCycles      5430571                       # Number of cycles decode is blocked
system.switch_cpus0.decode.RunCycles         35451415                       # Number of cycles decode is running
system.switch_cpus0.decode.UnblockCycles       517854                       # Number of cycles decode is unblocking
system.switch_cpus0.decode.SquashCycles       8847886                       # Number of cycles decode is squashing
system.switch_cpus0.decode.BranchResolved      5310047                       # Number of times decode resolved a branch
system.switch_cpus0.decode.BranchMispred          250                       # Number of times decode detected a branch misprediction
system.switch_cpus0.decode.DecodedInsts     205066682                       # Number of instructions handled by decode
system.switch_cpus0.decode.SquashedInsts         1227                       # Number of squashed instructions handled by decode
system.switch_cpus0.rename.SquashCycles       8847886                       # Number of cycles rename is squashing
system.switch_cpus0.rename.IdleCycles        35463737                       # Number of cycles rename is idle
system.switch_cpus0.rename.BlockCycles         489601                       # Number of cycles rename is blocking
system.switch_cpus0.rename.serializeStallCycles      2237077                       # count of cycles rename stalled for serializing inst
system.switch_cpus0.rename.RunCycles         34066353                       # Number of cycles rename is running
system.switch_cpus0.rename.UnblockCycles      2742038                       # Number of cycles rename is unblocking
system.switch_cpus0.rename.RenamedInsts     198994715                       # Number of instructions processed by rename
system.switch_cpus0.rename.IQFullEvents       1151721                       # Number of times rename has blocked due to IQ full
system.switch_cpus0.rename.LSQFullEvents       929024                       # Number of times rename has blocked due to LSQ full
system.switch_cpus0.rename.RenamedOperands    279061844                       # Number of destination operands rename has renamed
system.switch_cpus0.rename.RenameLookups    926321769                       # Number of register rename lookups that rename has made
system.switch_cpus0.rename.int_rename_lookups    926321769                       # Number of integer rename lookups
system.switch_cpus0.rename.CommittedMaps    171990357                       # Number of HB maps that are committed
system.switch_cpus0.rename.UndoneMaps       107071412                       # Number of HB maps that are undone due to squashing
system.switch_cpus0.rename.serializingInsts        35925                       # count of serializing insts renamed
system.switch_cpus0.rename.tempSerializingInsts        17152                       # count of temporary serializing insts renamed
system.switch_cpus0.rename.skidInsts          8140121                       # count of insts added to the skid buffer
system.switch_cpus0.memDep0.insertedLoads     18247189                       # Number of loads inserted to the mem dependence unit.
system.switch_cpus0.memDep0.insertedStores      9344160                       # Number of stores inserted to the mem dependence unit.
system.switch_cpus0.memDep0.conflictingLoads       112618                       # Number of conflicting loads.
system.switch_cpus0.memDep0.conflictingStores      2962555                       # Number of conflicting stores.
system.switch_cpus0.iq.iqInstsAdded         185524650                       # Number of instructions added to the IQ (excludes non-spec)
system.switch_cpus0.iq.iqNonSpecInstsAdded        34239                       # Number of non-speculative instructions added to the IQ
system.switch_cpus0.iq.iqInstsIssued        148238443                       # Number of instructions issued
system.switch_cpus0.iq.iqSquashedInstsIssued       294423                       # Number of squashed instructions issued
system.switch_cpus0.iq.iqSquashedInstsExamined     61795000                       # Number of squashed instructions iterated over during squash; mainly for profiling
system.switch_cpus0.iq.iqSquashedOperandsExamined    189116071                       # Number of squashed operands that are examined and possibly removed from graph
system.switch_cpus0.iq.iqSquashedNonSpecRemoved           63                       # Number of squashed non-spec instructions that were removed
system.switch_cpus0.iq.issued_per_cycle::samples     83846698                       # Number of insts issued each cycle
system.switch_cpus0.iq.issued_per_cycle::mean     1.767970                       # Number of insts issued each cycle
system.switch_cpus0.iq.issued_per_cycle::stdev     1.915635                       # Number of insts issued each cycle
system.switch_cpus0.iq.issued_per_cycle::underflows            0      0.00%      0.00% # Number of insts issued each cycle
system.switch_cpus0.iq.issued_per_cycle::0     30169157     35.98%     35.98% # Number of insts issued each cycle
system.switch_cpus0.iq.issued_per_cycle::1     16652995     19.86%     55.84% # Number of insts issued each cycle
system.switch_cpus0.iq.issued_per_cycle::2     12181675     14.53%     70.37% # Number of insts issued each cycle
system.switch_cpus0.iq.issued_per_cycle::3      8020299      9.57%     79.94% # Number of insts issued each cycle
system.switch_cpus0.iq.issued_per_cycle::4      8047948      9.60%     89.53% # Number of insts issued each cycle
system.switch_cpus0.iq.issued_per_cycle::5      3899336      4.65%     94.19% # Number of insts issued each cycle
system.switch_cpus0.iq.issued_per_cycle::6      3441018      4.10%     98.29% # Number of insts issued each cycle
system.switch_cpus0.iq.issued_per_cycle::7       647539      0.77%     99.06% # Number of insts issued each cycle
system.switch_cpus0.iq.issued_per_cycle::8       786731      0.94%    100.00% # Number of insts issued each cycle
system.switch_cpus0.iq.issued_per_cycle::overflows            0      0.00%    100.00% # Number of insts issued each cycle
system.switch_cpus0.iq.issued_per_cycle::min_value            0                       # Number of insts issued each cycle
system.switch_cpus0.iq.issued_per_cycle::max_value            8                       # Number of insts issued each cycle
system.switch_cpus0.iq.issued_per_cycle::total     83846698                       # Number of insts issued each cycle
system.switch_cpus0.iq.fu_full::No_OpClass            0      0.00%      0.00% # attempts to use FU when none available
system.switch_cpus0.iq.fu_full::IntAlu         808309     71.19%     71.19% # attempts to use FU when none available
system.switch_cpus0.iq.fu_full::IntMult             0      0.00%     71.19% # attempts to use FU when none available
system.switch_cpus0.iq.fu_full::IntDiv              0      0.00%     71.19% # attempts to use FU when none available
system.switch_cpus0.iq.fu_full::FloatAdd            0      0.00%     71.19% # attempts to use FU when none available
system.switch_cpus0.iq.fu_full::FloatCmp            0      0.00%     71.19% # attempts to use FU when none available
system.switch_cpus0.iq.fu_full::FloatCvt            0      0.00%     71.19% # attempts to use FU when none available
system.switch_cpus0.iq.fu_full::FloatMult            0      0.00%     71.19% # attempts to use FU when none available
system.switch_cpus0.iq.fu_full::FloatDiv            0      0.00%     71.19% # attempts to use FU when none available
system.switch_cpus0.iq.fu_full::FloatSqrt            0      0.00%     71.19% # attempts to use FU when none available
system.switch_cpus0.iq.fu_full::SimdAdd             0      0.00%     71.19% # attempts to use FU when none available
system.switch_cpus0.iq.fu_full::SimdAddAcc            0      0.00%     71.19% # attempts to use FU when none available
system.switch_cpus0.iq.fu_full::SimdAlu             0      0.00%     71.19% # attempts to use FU when none available
system.switch_cpus0.iq.fu_full::SimdCmp             0      0.00%     71.19% # attempts to use FU when none available
system.switch_cpus0.iq.fu_full::SimdCvt             0      0.00%     71.19% # attempts to use FU when none available
system.switch_cpus0.iq.fu_full::SimdMisc            0      0.00%     71.19% # attempts to use FU when none available
system.switch_cpus0.iq.fu_full::SimdMult            0      0.00%     71.19% # attempts to use FU when none available
system.switch_cpus0.iq.fu_full::SimdMultAcc            0      0.00%     71.19% # attempts to use FU when none available
system.switch_cpus0.iq.fu_full::SimdShift            0      0.00%     71.19% # attempts to use FU when none available
system.switch_cpus0.iq.fu_full::SimdShiftAcc            0      0.00%     71.19% # attempts to use FU when none available
system.switch_cpus0.iq.fu_full::SimdSqrt            0      0.00%     71.19% # attempts to use FU when none available
system.switch_cpus0.iq.fu_full::SimdFloatAdd            0      0.00%     71.19% # attempts to use FU when none available
system.switch_cpus0.iq.fu_full::SimdFloatAlu            0      0.00%     71.19% # attempts to use FU when none available
system.switch_cpus0.iq.fu_full::SimdFloatCmp            0      0.00%     71.19% # attempts to use FU when none available
system.switch_cpus0.iq.fu_full::SimdFloatCvt            0      0.00%     71.19% # attempts to use FU when none available
system.switch_cpus0.iq.fu_full::SimdFloatDiv            0      0.00%     71.19% # attempts to use FU when none available
system.switch_cpus0.iq.fu_full::SimdFloatMisc            0      0.00%     71.19% # attempts to use FU when none available
system.switch_cpus0.iq.fu_full::SimdFloatMult            0      0.00%     71.19% # attempts to use FU when none available
system.switch_cpus0.iq.fu_full::SimdFloatMultAcc            0      0.00%     71.19% # attempts to use FU when none available
system.switch_cpus0.iq.fu_full::SimdFloatSqrt            0      0.00%     71.19% # attempts to use FU when none available
system.switch_cpus0.iq.fu_full::MemRead        160068     14.10%     85.29% # attempts to use FU when none available
system.switch_cpus0.iq.fu_full::MemWrite       167071     14.71%    100.00% # attempts to use FU when none available
system.switch_cpus0.iq.fu_full::IprAccess            0      0.00%    100.00% # attempts to use FU when none available
system.switch_cpus0.iq.fu_full::InstPrefetch            0      0.00%    100.00% # attempts to use FU when none available
system.switch_cpus0.iq.FU_type_0::No_OpClass            0      0.00%      0.00% # Type of FU issued
system.switch_cpus0.iq.FU_type_0::IntAlu    124001424     83.65%     83.65% # Type of FU issued
system.switch_cpus0.iq.FU_type_0::IntMult      1872390      1.26%     84.91% # Type of FU issued
system.switch_cpus0.iq.FU_type_0::IntDiv            0      0.00%     84.91% # Type of FU issued
system.switch_cpus0.iq.FU_type_0::FloatAdd            0      0.00%     84.91% # Type of FU issued
system.switch_cpus0.iq.FU_type_0::FloatCmp            0      0.00%     84.91% # Type of FU issued
system.switch_cpus0.iq.FU_type_0::FloatCvt            0      0.00%     84.91% # Type of FU issued
system.switch_cpus0.iq.FU_type_0::FloatMult            0      0.00%     84.91% # Type of FU issued
system.switch_cpus0.iq.FU_type_0::FloatDiv            0      0.00%     84.91% # Type of FU issued
system.switch_cpus0.iq.FU_type_0::FloatSqrt            0      0.00%     84.91% # Type of FU issued
system.switch_cpus0.iq.FU_type_0::SimdAdd            0      0.00%     84.91% # Type of FU issued
system.switch_cpus0.iq.FU_type_0::SimdAddAcc            0      0.00%     84.91% # Type of FU issued
system.switch_cpus0.iq.FU_type_0::SimdAlu            0      0.00%     84.91% # Type of FU issued
system.switch_cpus0.iq.FU_type_0::SimdCmp            0      0.00%     84.91% # Type of FU issued
system.switch_cpus0.iq.FU_type_0::SimdCvt            0      0.00%     84.91% # Type of FU issued
system.switch_cpus0.iq.FU_type_0::SimdMisc            0      0.00%     84.91% # Type of FU issued
system.switch_cpus0.iq.FU_type_0::SimdMult            0      0.00%     84.91% # Type of FU issued
system.switch_cpus0.iq.FU_type_0::SimdMultAcc            0      0.00%     84.91% # Type of FU issued
system.switch_cpus0.iq.FU_type_0::SimdShift            0      0.00%     84.91% # Type of FU issued
system.switch_cpus0.iq.FU_type_0::SimdShiftAcc            0      0.00%     84.91% # Type of FU issued
system.switch_cpus0.iq.FU_type_0::SimdSqrt            0      0.00%     84.91% # Type of FU issued
system.switch_cpus0.iq.FU_type_0::SimdFloatAdd            0      0.00%     84.91% # Type of FU issued
system.switch_cpus0.iq.FU_type_0::SimdFloatAlu            0      0.00%     84.91% # Type of FU issued
system.switch_cpus0.iq.FU_type_0::SimdFloatCmp            0      0.00%     84.91% # Type of FU issued
system.switch_cpus0.iq.FU_type_0::SimdFloatCvt            0      0.00%     84.91% # Type of FU issued
system.switch_cpus0.iq.FU_type_0::SimdFloatDiv            0      0.00%     84.91% # Type of FU issued
system.switch_cpus0.iq.FU_type_0::SimdFloatMisc        17087      0.01%     84.92% # Type of FU issued
system.switch_cpus0.iq.FU_type_0::SimdFloatMult            0      0.00%     84.92% # Type of FU issued
system.switch_cpus0.iq.FU_type_0::SimdFloatMultAcc            0      0.00%     84.92% # Type of FU issued
system.switch_cpus0.iq.FU_type_0::SimdFloatSqrt            0      0.00%     84.92% # Type of FU issued
system.switch_cpus0.iq.FU_type_0::MemRead     14566833      9.83%     94.75% # Type of FU issued
system.switch_cpus0.iq.FU_type_0::MemWrite      7780709      5.25%    100.00% # Type of FU issued
system.switch_cpus0.iq.FU_type_0::IprAccess            0      0.00%    100.00% # Type of FU issued
system.switch_cpus0.iq.FU_type_0::InstPrefetch            0      0.00%    100.00% # Type of FU issued
system.switch_cpus0.iq.FU_type_0::total     148238443                       # Type of FU issued
system.switch_cpus0.iq.rate                  1.762063                       # Inst issue rate
system.switch_cpus0.iq.fu_busy_cnt            1135448                       # FU busy when requested
system.switch_cpus0.iq.fu_busy_rate          0.007660                       # FU busy rate (busy events/executed inst)
system.switch_cpus0.iq.int_inst_queue_reads    381753447                       # Number of integer instruction queue reads
system.switch_cpus0.iq.int_inst_queue_writes    247354268                       # Number of integer instruction queue writes
system.switch_cpus0.iq.int_inst_queue_wakeup_accesses    144144469                       # Number of integer instruction queue wakeup accesses
system.switch_cpus0.iq.fp_inst_queue_reads            0                       # Number of floating instruction queue reads
system.switch_cpus0.iq.fp_inst_queue_writes            0                       # Number of floating instruction queue writes
system.switch_cpus0.iq.fp_inst_queue_wakeup_accesses            0                       # Number of floating instruction queue wakeup accesses
system.switch_cpus0.iq.int_alu_accesses     149373891                       # Number of integer alu accesses
system.switch_cpus0.iq.fp_alu_accesses              0                       # Number of floating point alu accesses
system.switch_cpus0.iew.lsq.thread0.forwLoads       467186                       # Number of loads that had data forwarded from stores
system.switch_cpus0.iew.lsq.thread0.invAddrLoads            0                       # Number of loads ignored due to an invalid address
system.switch_cpus0.iew.lsq.thread0.squashedLoads      7071379                       # Number of loads squashed
system.switch_cpus0.iew.lsq.thread0.ignoredResponses         6360                       # Number of memory responses ignored because the instruction is squashed
system.switch_cpus0.iew.lsq.thread0.memOrderViolation          381                       # Number of memory ordering violations
system.switch_cpus0.iew.lsq.thread0.squashedStores      2237137                       # Number of stores squashed
system.switch_cpus0.iew.lsq.thread0.invAddrSwpfs            0                       # Number of software prefetches ignored due to an invalid address
system.switch_cpus0.iew.lsq.thread0.blockedLoads            0                       # Number of blocked loads due to partial load-store forwarding
system.switch_cpus0.iew.lsq.thread0.rescheduledLoads            0                       # Number of loads that were rescheduled
system.switch_cpus0.iew.lsq.thread0.cacheBlocked            0                       # Number of times an access to memory failed due to the cache being blocked
system.switch_cpus0.iew.iewIdleCycles               0                       # Number of cycles IEW is idle
system.switch_cpus0.iew.iewSquashCycles       8847886                       # Number of cycles IEW is squashing
system.switch_cpus0.iew.iewBlockCycles         252945                       # Number of cycles IEW is blocking
system.switch_cpus0.iew.iewUnblockCycles        48559                       # Number of cycles IEW is unblocking
system.switch_cpus0.iew.iewDispatchedInsts    185558895                       # Number of instructions dispatched to IQ
system.switch_cpus0.iew.iewDispSquashedInsts       637601                       # Number of squashed instructions skipped by dispatch
system.switch_cpus0.iew.iewDispLoadInsts     18247189                       # Number of dispatched load instructions
system.switch_cpus0.iew.iewDispStoreInsts      9344160                       # Number of dispatched store instructions
system.switch_cpus0.iew.iewDispNonSpecInsts        17151                       # Number of dispatched non-speculative instructions
system.switch_cpus0.iew.iewIQFullEvents         41220                       # Number of times the IQ has become full, causing a stall
system.switch_cpus0.iew.iewLSQFullEvents            0                       # Number of times the LSQ has become full, causing a stall
system.switch_cpus0.iew.memOrderViolationEvents          381                       # Number of memory order violations
system.switch_cpus0.iew.predictedTakenIncorrect      1282636                       # Number of branches that were predicted taken incorrectly
system.switch_cpus0.iew.predictedNotTakenIncorrect      1142819                       # Number of branches that were predicted not taken incorrectly
system.switch_cpus0.iew.branchMispredicts      2425455                       # Number of branch mispredicts detected at execute
system.switch_cpus0.iew.iewExecutedInsts    145519325                       # Number of executed instructions
system.switch_cpus0.iew.iewExecLoadInsts     13616800                       # Number of load instructions executed
system.switch_cpus0.iew.iewExecSquashedInsts      2719110                       # Number of squashed instructions skipped in execute
system.switch_cpus0.iew.exec_swp                    0                       # number of swp insts executed
system.switch_cpus0.iew.exec_nop                    6                       # number of nop insts executed
system.switch_cpus0.iew.exec_refs            21209792                       # number of memory reference insts executed
system.switch_cpus0.iew.exec_branches        20690261                       # Number of branches executed
system.switch_cpus0.iew.exec_stores           7592992                       # Number of stores executed
system.switch_cpus0.iew.exec_rate            1.729742                       # Inst execution rate
system.switch_cpus0.iew.wb_sent             144206731                       # cumulative count of insts sent to commit
system.switch_cpus0.iew.wb_count            144144469                       # cumulative count of insts written-back
system.switch_cpus0.iew.wb_producers         93402951                       # num instructions producing a value
system.switch_cpus0.iew.wb_consumers        265352651                       # num instructions consuming a value
system.switch_cpus0.iew.wb_penalized                0                       # number of instrctions required to write to 'other' IQ
system.switch_cpus0.iew.wb_rate              1.713400                       # insts written-back per cycle
system.switch_cpus0.iew.wb_fanout            0.351996                       # average fanout of values written-back
system.switch_cpus0.iew.wb_penalized_rate            0                       # fraction of instructions written-back that wrote to 'other' IQ
system.switch_cpus0.commit.commitCommittedInsts    100000001                       # The number of committed instructions
system.switch_cpus0.commit.commitCommittedOps    123264152                       # The number of committed instructions
system.switch_cpus0.commit.commitSquashedInsts     62294925                       # The number of squashed insts skipped by commit
system.switch_cpus0.commit.commitNonSpecStalls        34176                       # The number of times commit has been forced to stall to communicate backwards
system.switch_cpus0.commit.branchMispredicts      2119388                       # The number of times a branch was mispredicted
system.switch_cpus0.commit.committed_per_cycle::samples     74998812                       # Number of insts commited each cycle
system.switch_cpus0.commit.committed_per_cycle::mean     1.643548                       # Number of insts commited each cycle
system.switch_cpus0.commit.committed_per_cycle::stdev     2.173120                       # Number of insts commited each cycle
system.switch_cpus0.commit.committed_per_cycle::underflows            0      0.00%      0.00% # Number of insts commited each cycle
system.switch_cpus0.commit.committed_per_cycle::0     28869080     38.49%     38.49% # Number of insts commited each cycle
system.switch_cpus0.commit.committed_per_cycle::1     21391203     28.52%     67.01% # Number of insts commited each cycle
system.switch_cpus0.commit.committed_per_cycle::2      8080374     10.77%     77.79% # Number of insts commited each cycle
system.switch_cpus0.commit.committed_per_cycle::3      4528664      6.04%     83.83% # Number of insts commited each cycle
system.switch_cpus0.commit.committed_per_cycle::4      3840157      5.12%     88.95% # Number of insts commited each cycle
system.switch_cpus0.commit.committed_per_cycle::5      1715034      2.29%     91.23% # Number of insts commited each cycle
system.switch_cpus0.commit.committed_per_cycle::6      1642112      2.19%     93.42% # Number of insts commited each cycle
system.switch_cpus0.commit.committed_per_cycle::7      1119765      1.49%     94.92% # Number of insts commited each cycle
system.switch_cpus0.commit.committed_per_cycle::8      3812423      5.08%    100.00% # Number of insts commited each cycle
system.switch_cpus0.commit.committed_per_cycle::overflows            0      0.00%    100.00% # Number of insts commited each cycle
system.switch_cpus0.commit.committed_per_cycle::min_value            0                       # Number of insts commited each cycle
system.switch_cpus0.commit.committed_per_cycle::max_value            8                       # Number of insts commited each cycle
system.switch_cpus0.commit.committed_per_cycle::total     74998812                       # Number of insts commited each cycle
system.switch_cpus0.commit.committedInsts    100000001                       # Number of instructions committed
system.switch_cpus0.commit.committedOps     123264152                       # Number of ops (including micro ops) committed
system.switch_cpus0.commit.swp_count                0                       # Number of s/w prefetches committed
system.switch_cpus0.commit.refs              18282827                       # Number of memory references committed
system.switch_cpus0.commit.loads             11175804                       # Number of loads committed
system.switch_cpus0.commit.membars              17088                       # Number of memory barriers committed
system.switch_cpus0.commit.branches          17884103                       # Number of branches committed
system.switch_cpus0.commit.fp_insts                 0                       # Number of committed floating point instructions.
system.switch_cpus0.commit.int_insts        110969711                       # Number of committed integer instructions.
system.switch_cpus0.commit.function_calls      2549483                       # Number of function calls committed.
system.switch_cpus0.commit.bw_lim_events      3812423                       # number cycles where commit BW limit reached
system.switch_cpus0.commit.bw_limited               0                       # number of insts not committed due to BW limits
system.switch_cpus0.rob.rob_reads           256745466                       # The number of ROB reads
system.switch_cpus0.rob.rob_writes          379971754                       # The number of ROB writes
system.switch_cpus0.timesIdled                  16920                       # Number of times that the entire CPU went into an idle state and unscheduled itself
system.switch_cpus0.idleCycles                 281057                       # Total number of cycles that the CPU has spent unscheduled due to idling
system.switch_cpus0.committedInsts          100000001                       # Number of Instructions Simulated
system.switch_cpus0.committedOps            123264152                       # Number of Ops (including micro ops) Simulated
system.switch_cpus0.committedInsts_total    100000001                       # Number of Instructions Simulated
system.switch_cpus0.cpi                      0.841278                       # CPI: Cycles Per Instruction
system.switch_cpus0.cpi_total                0.841278                       # CPI: Total CPI of All Threads
system.switch_cpus0.ipc                      1.188668                       # IPC: Instructions Per Cycle
system.switch_cpus0.ipc_total                1.188668                       # IPC: Total IPC of All Threads
system.switch_cpus0.int_regfile_reads       653560125                       # number of integer regfile reads
system.switch_cpus0.int_regfile_writes      200491104                       # number of integer regfile writes
system.switch_cpus0.misc_regfile_reads      188514529                       # number of misc regfile reads
system.switch_cpus0.misc_regfile_writes         34176                       # number of misc regfile writes
system.switch_cpus1.dtb.inst_hits                   0                       # ITB inst hits
system.switch_cpus1.dtb.inst_misses                 0                       # ITB inst misses
system.switch_cpus1.dtb.read_hits                   0                       # DTB read hits
system.switch_cpus1.dtb.read_misses                 0                       # DTB read misses
system.switch_cpus1.dtb.write_hits                  0                       # DTB write hits
system.switch_cpus1.dtb.write_misses                0                       # DTB write misses
system.switch_cpus1.dtb.flush_tlb                   0                       # Number of times complete TLB was flushed
system.switch_cpus1.dtb.flush_tlb_mva               0                       # Number of times TLB was flushed by MVA
system.switch_cpus1.dtb.flush_tlb_mva_asid            0                       # Number of times TLB was flushed by MVA & ASID
system.switch_cpus1.dtb.flush_tlb_asid              0                       # Number of times TLB was flushed by ASID
system.switch_cpus1.dtb.flush_entries               0                       # Number of entries that have been flushed from TLB
system.switch_cpus1.dtb.align_faults                0                       # Number of TLB faults due to alignment restrictions
system.switch_cpus1.dtb.prefetch_faults             0                       # Number of TLB faults due to prefetch
system.switch_cpus1.dtb.domain_faults               0                       # Number of TLB faults due to domain restrictions
system.switch_cpus1.dtb.perms_faults                0                       # Number of TLB faults due to permissions restrictions
system.switch_cpus1.dtb.read_accesses               0                       # DTB read accesses
system.switch_cpus1.dtb.write_accesses              0                       # DTB write accesses
system.switch_cpus1.dtb.inst_accesses               0                       # ITB inst accesses
system.switch_cpus1.dtb.hits                        0                       # DTB hits
system.switch_cpus1.dtb.misses                      0                       # DTB misses
system.switch_cpus1.dtb.accesses                    0                       # DTB accesses
system.switch_cpus1.itb.inst_hits                   0                       # ITB inst hits
system.switch_cpus1.itb.inst_misses                 0                       # ITB inst misses
system.switch_cpus1.itb.read_hits                   0                       # DTB read hits
system.switch_cpus1.itb.read_misses                 0                       # DTB read misses
system.switch_cpus1.itb.write_hits                  0                       # DTB write hits
system.switch_cpus1.itb.write_misses                0                       # DTB write misses
system.switch_cpus1.itb.flush_tlb                   0                       # Number of times complete TLB was flushed
system.switch_cpus1.itb.flush_tlb_mva               0                       # Number of times TLB was flushed by MVA
system.switch_cpus1.itb.flush_tlb_mva_asid            0                       # Number of times TLB was flushed by MVA & ASID
system.switch_cpus1.itb.flush_tlb_asid              0                       # Number of times TLB was flushed by ASID
system.switch_cpus1.itb.flush_entries               0                       # Number of entries that have been flushed from TLB
system.switch_cpus1.itb.align_faults                0                       # Number of TLB faults due to alignment restrictions
system.switch_cpus1.itb.prefetch_faults             0                       # Number of TLB faults due to prefetch
system.switch_cpus1.itb.domain_faults               0                       # Number of TLB faults due to domain restrictions
system.switch_cpus1.itb.perms_faults                0                       # Number of TLB faults due to permissions restrictions
system.switch_cpus1.itb.read_accesses               0                       # DTB read accesses
system.switch_cpus1.itb.write_accesses              0                       # DTB write accesses
system.switch_cpus1.itb.inst_accesses               0                       # ITB inst accesses
system.switch_cpus1.itb.hits                        0                       # DTB hits
system.switch_cpus1.itb.misses                      0                       # DTB misses
system.switch_cpus1.itb.accesses                    0                       # DTB accesses
system.cpu1.workload.num_syscalls                   0                       # Number of system calls
system.switch_cpus1.numCycles                84127755                       # number of cpu cycles simulated
system.switch_cpus1.numWorkItemsStarted             0                       # number of work items this cpu started
system.switch_cpus1.numWorkItemsCompleted            0                       # number of work items this cpu completed
system.switch_cpus1.BPredUnit.lookups        30278383                       # Number of BP lookups
system.switch_cpus1.BPredUnit.condPredicted     24626170                       # Number of conditional branches predicted
system.switch_cpus1.BPredUnit.condIncorrect      2024447                       # Number of conditional branches incorrect
system.switch_cpus1.BPredUnit.BTBLookups     12953011                       # Number of BTB lookups
system.switch_cpus1.BPredUnit.BTBHits        11940626                       # Number of BTB hits
system.switch_cpus1.BPredUnit.BTBCorrect            0                       # Number of correct BTB predictions (this stat may not work properly.
system.switch_cpus1.BPredUnit.usedRAS         3114358                       # Number of times the RAS was used to get a target.
system.switch_cpus1.BPredUnit.RASInCorrect        89433                       # Number of incorrect RAS predictions.
system.switch_cpus1.fetch.icacheStallCycles     33506539                       # Number of cycles fetch is stalled on an Icache miss
system.switch_cpus1.fetch.Insts             165381355                       # Number of instructions fetch has processed
system.switch_cpus1.fetch.Branches           30278383                       # Number of branches that fetch encountered
system.switch_cpus1.fetch.predictedBranches     15054984                       # Number of branches that fetch has predicted taken
system.switch_cpus1.fetch.Cycles             34743447                       # Number of cycles fetch has run and was not squashing or blocked
system.switch_cpus1.fetch.SquashCycles       10384562                       # Number of cycles fetch has spent squashing
system.switch_cpus1.fetch.BlockedCycles       5587214                       # Number of cycles fetch has spent blocked
system.switch_cpus1.fetch.CacheLines         16371433                       # Number of cache lines fetched
system.switch_cpus1.fetch.IcacheSquashes       801210                       # Number of outstanding Icache misses that were squashed
system.switch_cpus1.fetch.rateDist::samples     82162733                       # Number of instructions fetched each cycle (Total)
system.switch_cpus1.fetch.rateDist::mean     2.479852                       # Number of instructions fetched each cycle (Total)
system.switch_cpus1.fetch.rateDist::stdev     3.296264                       # Number of instructions fetched each cycle (Total)
system.switch_cpus1.fetch.rateDist::underflows            0      0.00%      0.00% # Number of instructions fetched each cycle (Total)
system.switch_cpus1.fetch.rateDist::0        47419286     57.71%     57.71% # Number of instructions fetched each cycle (Total)
system.switch_cpus1.fetch.rateDist::1         1864559      2.27%     59.98% # Number of instructions fetched each cycle (Total)
system.switch_cpus1.fetch.rateDist::2         2425504      2.95%     62.94% # Number of instructions fetched each cycle (Total)
system.switch_cpus1.fetch.rateDist::3         3691804      4.49%     67.43% # Number of instructions fetched each cycle (Total)
system.switch_cpus1.fetch.rateDist::4         3574516      4.35%     71.78% # Number of instructions fetched each cycle (Total)
system.switch_cpus1.fetch.rateDist::5         2719305      3.31%     75.09% # Number of instructions fetched each cycle (Total)
system.switch_cpus1.fetch.rateDist::6         1619989      1.97%     77.06% # Number of instructions fetched each cycle (Total)
system.switch_cpus1.fetch.rateDist::7         2436278      2.97%     80.03% # Number of instructions fetched each cycle (Total)
system.switch_cpus1.fetch.rateDist::8        16411492     19.97%    100.00% # Number of instructions fetched each cycle (Total)
system.switch_cpus1.fetch.rateDist::overflows            0      0.00%    100.00% # Number of instructions fetched each cycle (Total)
system.switch_cpus1.fetch.rateDist::min_value            0                       # Number of instructions fetched each cycle (Total)
system.switch_cpus1.fetch.rateDist::max_value            8                       # Number of instructions fetched each cycle (Total)
system.switch_cpus1.fetch.rateDist::total     82162733                       # Number of instructions fetched each cycle (Total)
system.switch_cpus1.fetch.branchRate         0.359910                       # Number of branch fetches per cycle
system.switch_cpus1.fetch.rate               1.965836                       # Number of inst fetches per cycle
system.switch_cpus1.decode.IdleCycles        34618739                       # Number of cycles decode is idle
system.switch_cpus1.decode.BlockedCycles      5474531                       # Number of cycles decode is blocked
system.switch_cpus1.decode.RunCycles         33482927                       # Number of cycles decode is running
system.switch_cpus1.decode.UnblockCycles       261245                       # Number of cycles decode is unblocking
system.switch_cpus1.decode.SquashCycles       8325290                       # Number of cycles decode is squashing
system.switch_cpus1.decode.BranchResolved      5139286                       # Number of times decode resolved a branch
system.switch_cpus1.decode.BranchMispred          267                       # Number of times decode detected a branch misprediction
system.switch_cpus1.decode.DecodedInsts     197851096                       # Number of instructions handled by decode
system.switch_cpus1.decode.SquashedInsts         1306                       # Number of squashed instructions handled by decode
system.switch_cpus1.rename.SquashCycles       8325290                       # Number of cycles rename is squashing
system.switch_cpus1.rename.IdleCycles        36439811                       # Number of cycles rename is idle
system.switch_cpus1.rename.BlockCycles        1009847                       # Number of cycles rename is blocking
system.switch_cpus1.rename.serializeStallCycles      1799643                       # count of cycles rename stalled for serializing inst
system.switch_cpus1.rename.RunCycles         31880362                       # Number of cycles rename is running
system.switch_cpus1.rename.UnblockCycles      2707773                       # Number of cycles rename is unblocking
system.switch_cpus1.rename.RenamedInsts     192111914                       # Number of instructions processed by rename
system.switch_cpus1.rename.ROBFullEvents          832                       # Number of times rename has blocked due to ROB full
system.switch_cpus1.rename.IQFullEvents       1168738                       # Number of times rename has blocked due to IQ full
system.switch_cpus1.rename.LSQFullEvents       851426                       # Number of times rename has blocked due to LSQ full
system.switch_cpus1.rename.FullRegisterEvents           53                       # Number of times there has been no free registers
system.switch_cpus1.rename.RenamedOperands    267646076                       # Number of destination operands rename has renamed
system.switch_cpus1.rename.RenameLookups    894726590                       # Number of register rename lookups that rename has made
system.switch_cpus1.rename.int_rename_lookups    894726590                       # Number of integer rename lookups
system.switch_cpus1.rename.CommittedMaps    166468286                       # Number of HB maps that are committed
system.switch_cpus1.rename.UndoneMaps       101177778                       # Number of HB maps that are undone due to squashing
system.switch_cpus1.rename.serializingInsts        40858                       # count of serializing insts renamed
system.switch_cpus1.rename.tempSerializingInsts        23060                       # count of temporary serializing insts renamed
system.switch_cpus1.rename.skidInsts          7659718                       # count of insts added to the skid buffer
system.switch_cpus1.memDep0.insertedLoads     17802085                       # Number of loads inserted to the mem dependence unit.
system.switch_cpus1.memDep0.insertedStores      9445556                       # Number of stores inserted to the mem dependence unit.
system.switch_cpus1.memDep0.conflictingLoads       182677                       # Number of conflicting loads.
system.switch_cpus1.memDep0.conflictingStores      2882601                       # Number of conflicting stores.
system.switch_cpus1.iq.iqInstsAdded         178565026                       # Number of instructions added to the IQ (excludes non-spec)
system.switch_cpus1.iq.iqNonSpecInstsAdded        38769                       # Number of non-speculative instructions added to the IQ
system.switch_cpus1.iq.iqInstsIssued        143897358                       # Number of instructions issued
system.switch_cpus1.iq.iqSquashedInstsIssued       267256                       # Number of squashed instructions issued
system.switch_cpus1.iq.iqSquashedInstsExamined     58046551                       # Number of squashed instructions iterated over during squash; mainly for profiling
system.switch_cpus1.iq.iqSquashedOperandsExamined    176353664                       # Number of squashed operands that are examined and possibly removed from graph
system.switch_cpus1.iq.iqSquashedNonSpecRemoved         6265                       # Number of squashed non-spec instructions that were removed
system.switch_cpus1.iq.issued_per_cycle::samples     82162733                       # Number of insts issued each cycle
system.switch_cpus1.iq.issued_per_cycle::mean     1.751370                       # Number of insts issued each cycle
system.switch_cpus1.iq.issued_per_cycle::stdev     1.898429                       # Number of insts issued each cycle
system.switch_cpus1.iq.issued_per_cycle::underflows            0      0.00%      0.00% # Number of insts issued each cycle
system.switch_cpus1.iq.issued_per_cycle::0     28782602     35.03%     35.03% # Number of insts issued each cycle
system.switch_cpus1.iq.issued_per_cycle::1     17969568     21.87%     56.90% # Number of insts issued each cycle
system.switch_cpus1.iq.issued_per_cycle::2     11551732     14.06%     70.96% # Number of insts issued each cycle
system.switch_cpus1.iq.issued_per_cycle::3      7941870      9.67%     80.63% # Number of insts issued each cycle
system.switch_cpus1.iq.issued_per_cycle::4      7440403      9.06%     89.68% # Number of insts issued each cycle
system.switch_cpus1.iq.issued_per_cycle::5      3954592      4.81%     94.50% # Number of insts issued each cycle
system.switch_cpus1.iq.issued_per_cycle::6      2919006      3.55%     98.05% # Number of insts issued each cycle
system.switch_cpus1.iq.issued_per_cycle::7       873572      1.06%     99.11% # Number of insts issued each cycle
system.switch_cpus1.iq.issued_per_cycle::8       729388      0.89%    100.00% # Number of insts issued each cycle
system.switch_cpus1.iq.issued_per_cycle::overflows            0      0.00%    100.00% # Number of insts issued each cycle
system.switch_cpus1.iq.issued_per_cycle::min_value            0                       # Number of insts issued each cycle
system.switch_cpus1.iq.issued_per_cycle::max_value            8                       # Number of insts issued each cycle
system.switch_cpus1.iq.issued_per_cycle::total     82162733                       # Number of insts issued each cycle
system.switch_cpus1.iq.fu_full::No_OpClass            0      0.00%      0.00% # attempts to use FU when none available
system.switch_cpus1.iq.fu_full::IntAlu         707310     69.05%     69.05% # attempts to use FU when none available
system.switch_cpus1.iq.fu_full::IntMult             9      0.00%     69.05% # attempts to use FU when none available
system.switch_cpus1.iq.fu_full::IntDiv              0      0.00%     69.05% # attempts to use FU when none available
system.switch_cpus1.iq.fu_full::FloatAdd            0      0.00%     69.05% # attempts to use FU when none available
system.switch_cpus1.iq.fu_full::FloatCmp            0      0.00%     69.05% # attempts to use FU when none available
system.switch_cpus1.iq.fu_full::FloatCvt            0      0.00%     69.05% # attempts to use FU when none available
system.switch_cpus1.iq.fu_full::FloatMult            0      0.00%     69.05% # attempts to use FU when none available
system.switch_cpus1.iq.fu_full::FloatDiv            0      0.00%     69.05% # attempts to use FU when none available
system.switch_cpus1.iq.fu_full::FloatSqrt            0      0.00%     69.05% # attempts to use FU when none available
system.switch_cpus1.iq.fu_full::SimdAdd             0      0.00%     69.05% # attempts to use FU when none available
system.switch_cpus1.iq.fu_full::SimdAddAcc            0      0.00%     69.05% # attempts to use FU when none available
system.switch_cpus1.iq.fu_full::SimdAlu             0      0.00%     69.05% # attempts to use FU when none available
system.switch_cpus1.iq.fu_full::SimdCmp             0      0.00%     69.05% # attempts to use FU when none available
system.switch_cpus1.iq.fu_full::SimdCvt             0      0.00%     69.05% # attempts to use FU when none available
system.switch_cpus1.iq.fu_full::SimdMisc            0      0.00%     69.05% # attempts to use FU when none available
system.switch_cpus1.iq.fu_full::SimdMult            0      0.00%     69.05% # attempts to use FU when none available
system.switch_cpus1.iq.fu_full::SimdMultAcc            0      0.00%     69.05% # attempts to use FU when none available
system.switch_cpus1.iq.fu_full::SimdShift            0      0.00%     69.05% # attempts to use FU when none available
system.switch_cpus1.iq.fu_full::SimdShiftAcc            0      0.00%     69.05% # attempts to use FU when none available
system.switch_cpus1.iq.fu_full::SimdSqrt            0      0.00%     69.05% # attempts to use FU when none available
system.switch_cpus1.iq.fu_full::SimdFloatAdd            0      0.00%     69.05% # attempts to use FU when none available
system.switch_cpus1.iq.fu_full::SimdFloatAlu            0      0.00%     69.05% # attempts to use FU when none available
system.switch_cpus1.iq.fu_full::SimdFloatCmp            0      0.00%     69.05% # attempts to use FU when none available
system.switch_cpus1.iq.fu_full::SimdFloatCvt            0      0.00%     69.05% # attempts to use FU when none available
system.switch_cpus1.iq.fu_full::SimdFloatDiv            0      0.00%     69.05% # attempts to use FU when none available
system.switch_cpus1.iq.fu_full::SimdFloatMisc            0      0.00%     69.05% # attempts to use FU when none available
system.switch_cpus1.iq.fu_full::SimdFloatMult            0      0.00%     69.05% # attempts to use FU when none available
system.switch_cpus1.iq.fu_full::SimdFloatMultAcc            0      0.00%     69.05% # attempts to use FU when none available
system.switch_cpus1.iq.fu_full::SimdFloatSqrt            0      0.00%     69.05% # attempts to use FU when none available
system.switch_cpus1.iq.fu_full::MemRead        145952     14.25%     83.30% # attempts to use FU when none available
system.switch_cpus1.iq.fu_full::MemWrite       171096     16.70%    100.00% # attempts to use FU when none available
system.switch_cpus1.iq.fu_full::IprAccess            0      0.00%    100.00% # attempts to use FU when none available
system.switch_cpus1.iq.fu_full::InstPrefetch            0      0.00%    100.00% # attempts to use FU when none available
system.switch_cpus1.iq.FU_type_0::No_OpClass            0      0.00%      0.00% # Type of FU issued
system.switch_cpus1.iq.FU_type_0::IntAlu    119726445     83.20%     83.20% # Type of FU issued
system.switch_cpus1.iq.FU_type_0::IntMult      2032284      1.41%     84.61% # Type of FU issued
system.switch_cpus1.iq.FU_type_0::IntDiv            0      0.00%     84.61% # Type of FU issued
system.switch_cpus1.iq.FU_type_0::FloatAdd            0      0.00%     84.61% # Type of FU issued
system.switch_cpus1.iq.FU_type_0::FloatCmp            0      0.00%     84.61% # Type of FU issued
system.switch_cpus1.iq.FU_type_0::FloatCvt            0      0.00%     84.61% # Type of FU issued
system.switch_cpus1.iq.FU_type_0::FloatMult            0      0.00%     84.61% # Type of FU issued
system.switch_cpus1.iq.FU_type_0::FloatDiv            0      0.00%     84.61% # Type of FU issued
system.switch_cpus1.iq.FU_type_0::FloatSqrt            0      0.00%     84.61% # Type of FU issued
system.switch_cpus1.iq.FU_type_0::SimdAdd            0      0.00%     84.61% # Type of FU issued
system.switch_cpus1.iq.FU_type_0::SimdAddAcc            0      0.00%     84.61% # Type of FU issued
system.switch_cpus1.iq.FU_type_0::SimdAlu            0      0.00%     84.61% # Type of FU issued
system.switch_cpus1.iq.FU_type_0::SimdCmp            0      0.00%     84.61% # Type of FU issued
system.switch_cpus1.iq.FU_type_0::SimdCvt            0      0.00%     84.61% # Type of FU issued
system.switch_cpus1.iq.FU_type_0::SimdMisc            0      0.00%     84.61% # Type of FU issued
system.switch_cpus1.iq.FU_type_0::SimdMult            0      0.00%     84.61% # Type of FU issued
system.switch_cpus1.iq.FU_type_0::SimdMultAcc            0      0.00%     84.61% # Type of FU issued
system.switch_cpus1.iq.FU_type_0::SimdShift            0      0.00%     84.61% # Type of FU issued
system.switch_cpus1.iq.FU_type_0::SimdShiftAcc            0      0.00%     84.61% # Type of FU issued
system.switch_cpus1.iq.FU_type_0::SimdSqrt            0      0.00%     84.61% # Type of FU issued
system.switch_cpus1.iq.FU_type_0::SimdFloatAdd            0      0.00%     84.61% # Type of FU issued
system.switch_cpus1.iq.FU_type_0::SimdFloatAlu            0      0.00%     84.61% # Type of FU issued
system.switch_cpus1.iq.FU_type_0::SimdFloatCmp            0      0.00%     84.61% # Type of FU issued
system.switch_cpus1.iq.FU_type_0::SimdFloatCvt            0      0.00%     84.61% # Type of FU issued
system.switch_cpus1.iq.FU_type_0::SimdFloatDiv            0      0.00%     84.61% # Type of FU issued
system.switch_cpus1.iq.FU_type_0::SimdFloatMisc        16251      0.01%     84.63% # Type of FU issued
system.switch_cpus1.iq.FU_type_0::SimdFloatMult            0      0.00%     84.63% # Type of FU issued
system.switch_cpus1.iq.FU_type_0::SimdFloatMultAcc            0      0.00%     84.63% # Type of FU issued
system.switch_cpus1.iq.FU_type_0::SimdFloatSqrt            0      0.00%     84.63% # Type of FU issued
system.switch_cpus1.iq.FU_type_0::MemRead     14199223      9.87%     94.49% # Type of FU issued
system.switch_cpus1.iq.FU_type_0::MemWrite      7923155      5.51%    100.00% # Type of FU issued
system.switch_cpus1.iq.FU_type_0::IprAccess            0      0.00%    100.00% # Type of FU issued
system.switch_cpus1.iq.FU_type_0::InstPrefetch            0      0.00%    100.00% # Type of FU issued
system.switch_cpus1.iq.FU_type_0::total     143897358                       # Type of FU issued
system.switch_cpus1.iq.rate                  1.710462                       # Inst issue rate
system.switch_cpus1.iq.fu_busy_cnt            1024367                       # FU busy when requested
system.switch_cpus1.iq.fu_busy_rate          0.007119                       # FU busy rate (busy events/executed inst)
system.switch_cpus1.iq.int_inst_queue_reads    371249072                       # Number of integer instruction queue reads
system.switch_cpus1.iq.int_inst_queue_writes    236651156                       # Number of integer instruction queue writes
system.switch_cpus1.iq.int_inst_queue_wakeup_accesses    139841624                       # Number of integer instruction queue wakeup accesses
system.switch_cpus1.iq.fp_inst_queue_reads            0                       # Number of floating instruction queue reads
system.switch_cpus1.iq.fp_inst_queue_writes            0                       # Number of floating instruction queue writes
system.switch_cpus1.iq.fp_inst_queue_wakeup_accesses            0                       # Number of floating instruction queue wakeup accesses
system.switch_cpus1.iq.int_alu_accesses     144921725                       # Number of integer alu accesses
system.switch_cpus1.iq.fp_alu_accesses              0                       # Number of floating point alu accesses
system.switch_cpus1.iew.lsq.thread0.forwLoads       487162                       # Number of loads that had data forwarded from stores
system.switch_cpus1.iew.lsq.thread0.invAddrLoads            0                       # Number of loads ignored due to an invalid address
system.switch_cpus1.iew.lsq.thread0.squashedLoads      6816405                       # Number of loads squashed
system.switch_cpus1.iew.lsq.thread0.ignoredResponses         2244                       # Number of memory responses ignored because the instruction is squashed
system.switch_cpus1.iew.lsq.thread0.memOrderViolation          855                       # Number of memory ordering violations
system.switch_cpus1.iew.lsq.thread0.squashedStores      2403826                       # Number of stores squashed
system.switch_cpus1.iew.lsq.thread0.invAddrSwpfs            0                       # Number of software prefetches ignored due to an invalid address
system.switch_cpus1.iew.lsq.thread0.blockedLoads            0                       # Number of blocked loads due to partial load-store forwarding
system.switch_cpus1.iew.lsq.thread0.rescheduledLoads            0                       # Number of loads that were rescheduled
system.switch_cpus1.iew.lsq.thread0.cacheBlocked          279                       # Number of times an access to memory failed due to the cache being blocked
system.switch_cpus1.iew.iewIdleCycles               0                       # Number of cycles IEW is idle
system.switch_cpus1.iew.iewSquashCycles       8325290                       # Number of cycles IEW is squashing
system.switch_cpus1.iew.iewBlockCycles         598547                       # Number of cycles IEW is blocking
system.switch_cpus1.iew.iewUnblockCycles        95894                       # Number of cycles IEW is unblocking
system.switch_cpus1.iew.iewDispatchedInsts    178603795                       # Number of instructions dispatched to IQ
system.switch_cpus1.iew.iewDispSquashedInsts      1161839                       # Number of squashed instructions skipped by dispatch
system.switch_cpus1.iew.iewDispLoadInsts     17802085                       # Number of dispatched load instructions
system.switch_cpus1.iew.iewDispStoreInsts      9445556                       # Number of dispatched store instructions
system.switch_cpus1.iew.iewDispNonSpecInsts        22517                       # Number of dispatched non-speculative instructions
system.switch_cpus1.iew.iewIQFullEvents         72799                       # Number of times the IQ has become full, causing a stall
system.switch_cpus1.iew.iewLSQFullEvents            0                       # Number of times the LSQ has become full, causing a stall
system.switch_cpus1.iew.memOrderViolationEvents          855                       # Number of memory order violations
system.switch_cpus1.iew.predictedTakenIncorrect      1240488                       # Number of branches that were predicted taken incorrectly
system.switch_cpus1.iew.predictedNotTakenIncorrect      1138886                       # Number of branches that were predicted not taken incorrectly
system.switch_cpus1.iew.branchMispredicts      2379374                       # Number of branch mispredicts detected at execute
system.switch_cpus1.iew.iewExecutedInsts    141120085                       # Number of executed instructions
system.switch_cpus1.iew.iewExecLoadInsts     13364632                       # Number of load instructions executed
system.switch_cpus1.iew.iewExecSquashedInsts      2777273                       # Number of squashed instructions skipped in execute
system.switch_cpus1.iew.exec_swp                    0                       # number of swp insts executed
system.switch_cpus1.iew.exec_nop                    0                       # number of nop insts executed
system.switch_cpus1.iew.exec_refs            21102286                       # number of memory reference insts executed
system.switch_cpus1.iew.exec_branches        19763231                       # Number of branches executed
system.switch_cpus1.iew.exec_stores           7737654                       # Number of stores executed
system.switch_cpus1.iew.exec_rate            1.677450                       # Inst execution rate
system.switch_cpus1.iew.wb_sent             139878891                       # cumulative count of insts sent to commit
system.switch_cpus1.iew.wb_count            139841624                       # cumulative count of insts written-back
system.switch_cpus1.iew.wb_producers         89838842                       # num instructions producing a value
system.switch_cpus1.iew.wb_consumers        252298036                       # num instructions consuming a value
system.switch_cpus1.iew.wb_penalized                0                       # number of instrctions required to write to 'other' IQ
system.switch_cpus1.iew.wb_rate              1.662253                       # insts written-back per cycle
system.switch_cpus1.iew.wb_fanout            0.356082                       # average fanout of values written-back
system.switch_cpus1.iew.wb_penalized_rate            0                       # fraction of instructions written-back that wrote to 'other' IQ
system.switch_cpus1.commit.commitCommittedInsts     97493718                       # The number of committed instructions
system.switch_cpus1.commit.commitCommittedOps    119823647                       # The number of committed instructions
system.switch_cpus1.commit.commitSquashedInsts     58780415                       # The number of squashed insts skipped by commit
system.switch_cpus1.commit.commitNonSpecStalls        32504                       # The number of times commit has been forced to stall to communicate backwards
system.switch_cpus1.commit.branchMispredicts      2057933                       # The number of times a branch was mispredicted
system.switch_cpus1.commit.committed_per_cycle::samples     73837443                       # Number of insts commited each cycle
system.switch_cpus1.commit.committed_per_cycle::mean     1.622803                       # Number of insts commited each cycle
system.switch_cpus1.commit.committed_per_cycle::stdev     2.152255                       # Number of insts commited each cycle
system.switch_cpus1.commit.committed_per_cycle::underflows            0      0.00%      0.00% # Number of insts commited each cycle
system.switch_cpus1.commit.committed_per_cycle::0     28664411     38.82%     38.82% # Number of insts commited each cycle
system.switch_cpus1.commit.committed_per_cycle::1     21115706     28.60%     67.42% # Number of insts commited each cycle
system.switch_cpus1.commit.committed_per_cycle::2      7792808     10.55%     77.97% # Number of insts commited each cycle
system.switch_cpus1.commit.committed_per_cycle::3      4455923      6.03%     84.01% # Number of insts commited each cycle
system.switch_cpus1.commit.committed_per_cycle::4      3714342      5.03%     89.04% # Number of insts commited each cycle
system.switch_cpus1.commit.committed_per_cycle::5      1801135      2.44%     91.48% # Number of insts commited each cycle
system.switch_cpus1.commit.committed_per_cycle::6      1836938      2.49%     93.96% # Number of insts commited each cycle
system.switch_cpus1.commit.committed_per_cycle::7       779555      1.06%     95.02% # Number of insts commited each cycle
system.switch_cpus1.commit.committed_per_cycle::8      3676625      4.98%    100.00% # Number of insts commited each cycle
system.switch_cpus1.commit.committed_per_cycle::overflows            0      0.00%    100.00% # Number of insts commited each cycle
system.switch_cpus1.commit.committed_per_cycle::min_value            0                       # Number of insts commited each cycle
system.switch_cpus1.commit.committed_per_cycle::max_value            8                       # Number of insts commited each cycle
system.switch_cpus1.commit.committed_per_cycle::total     73837443                       # Number of insts commited each cycle
system.switch_cpus1.commit.committedInsts     97493718                       # Number of instructions committed
system.switch_cpus1.commit.committedOps     119823647                       # Number of ops (including micro ops) committed
system.switch_cpus1.commit.swp_count                0                       # Number of s/w prefetches committed
system.switch_cpus1.commit.refs              18027410                       # Number of memory references committed
[...]
system.cpu2.icache.ReadReq_miss_latency::total      2241269                       # number of ReadReq miss cycles
system.cpu2.icache.demand_miss_latency::switch_cpus2.inst      2241269                       # number of demand (read+write) miss cycles
system.cpu2.icache.demand_miss_latency::total      2241269                       # number of demand (read+write) miss cycles
system.cpu2.icache.overall_miss_latency::switch_cpus2.inst      2241269                       # number of overall miss cycles
system.cpu2.icache.overall_miss_latency::total      2241269                       # number of overall miss cycles
system.cpu2.icache.ReadReq_accesses::switch_cpus2.inst     14550650                       # number of ReadReq accesses(hits+misses)
system.cpu2.icache.ReadReq_accesses::total     14550650                       # number of ReadReq accesses(hits+misses)
system.cpu2.icache.demand_accesses::switch_cpus2.inst     14550650                       # number of demand (read+write) accesses
system.cpu2.icache.demand_accesses::total     14550650                       # number of demand (read+write) accesses
system.cpu2.icache.overall_accesses::switch_cpus2.inst     14550650                       # number of overall (read+write) accesses
system.cpu2.icache.overall_accesses::total     14550650                       # number of overall (read+write) accesses
system.cpu2.icache.ReadReq_miss_rate::switch_cpus2.inst     0.000001                       # miss rate for ReadReq accesses
system.cpu2.icache.ReadReq_miss_rate::total     0.000001                       # miss rate for ReadReq accesses
system.cpu2.icache.demand_miss_rate::switch_cpus2.inst     0.000001                       # miss rate for demand accesses
system.cpu2.icache.demand_miss_rate::total     0.000001                       # miss rate for demand accesses
system.cpu2.icache.overall_miss_rate::switch_cpus2.inst     0.000001                       # miss rate for overall accesses
system.cpu2.icache.overall_miss_rate::total     0.000001                       # miss rate for overall accesses
system.cpu2.icache.ReadReq_avg_miss_latency::switch_cpus2.inst 149417.933333                       # average ReadReq miss latency
system.cpu2.icache.ReadReq_avg_miss_latency::total 149417.933333                       # average ReadReq miss latency
system.cpu2.icache.demand_avg_miss_latency::switch_cpus2.inst 149417.933333                       # average overall miss latency
system.cpu2.icache.demand_avg_miss_latency::total 149417.933333                       # average overall miss latency
system.cpu2.icache.overall_avg_miss_latency::switch_cpus2.inst 149417.933333                       # average overall miss latency
system.cpu2.icache.overall_avg_miss_latency::total 149417.933333                       # average overall miss latency
system.cpu2.icache.blocked_cycles::no_mshrs            0                       # number of cycles access was blocked
system.cpu2.icache.blocked_cycles::no_targets            0                       # number of cycles access was blocked
system.cpu2.icache.blocked::no_mshrs                0                       # number of cycles access was blocked
system.cpu2.icache.blocked::no_targets              0                       # number of cycles access was blocked
system.cpu2.icache.avg_blocked_cycles::no_mshrs          nan                       # average number of cycles each access was blocked
system.cpu2.icache.avg_blocked_cycles::no_targets          nan                       # average number of cycles each access was blocked
system.cpu2.icache.fast_writes                      0                       # number of fast writes performed
system.cpu2.icache.cache_copies                     0                       # number of cache copies performed
system.cpu2.icache.ReadReq_mshr_hits::switch_cpus2.inst            1                       # number of ReadReq MSHR hits
system.cpu2.icache.ReadReq_mshr_hits::total            1                       # number of ReadReq MSHR hits
system.cpu2.icache.demand_mshr_hits::switch_cpus2.inst            1                       # number of demand (read+write) MSHR hits
system.cpu2.icache.demand_mshr_hits::total            1                       # number of demand (read+write) MSHR hits
system.cpu2.icache.overall_mshr_hits::switch_cpus2.inst            1                       # number of overall MSHR hits
system.cpu2.icache.overall_mshr_hits::total            1                       # number of overall MSHR hits
system.cpu2.icache.ReadReq_mshr_misses::switch_cpus2.inst           14                       # number of ReadReq MSHR misses
system.cpu2.icache.ReadReq_mshr_misses::total           14                       # number of ReadReq MSHR misses
system.cpu2.icache.demand_mshr_misses::switch_cpus2.inst           14                       # number of demand (read+write) MSHR misses
system.cpu2.icache.demand_mshr_misses::total           14                       # number of demand (read+write) MSHR misses
system.cpu2.icache.overall_mshr_misses::switch_cpus2.inst           14                       # number of overall MSHR misses
system.cpu2.icache.overall_mshr_misses::total           14                       # number of overall MSHR misses
system.cpu2.icache.ReadReq_mshr_miss_latency::switch_cpus2.inst      1893905                       # number of ReadReq MSHR miss cycles
system.cpu2.icache.ReadReq_mshr_miss_latency::total      1893905                       # number of ReadReq MSHR miss cycles
system.cpu2.icache.demand_mshr_miss_latency::switch_cpus2.inst      1893905                       # number of demand (read+write) MSHR miss cycles
system.cpu2.icache.demand_mshr_miss_latency::total      1893905                       # number of demand (read+write) MSHR miss cycles
system.cpu2.icache.overall_mshr_miss_latency::switch_cpus2.inst      1893905                       # number of overall MSHR miss cycles
system.cpu2.icache.overall_mshr_miss_latency::total      1893905                       # number of overall MSHR miss cycles
system.cpu2.icache.ReadReq_mshr_miss_rate::switch_cpus2.inst     0.000001                       # mshr miss rate for ReadReq accesses
system.cpu2.icache.ReadReq_mshr_miss_rate::total     0.000001                       # mshr miss rate for ReadReq accesses
system.cpu2.icache.demand_mshr_miss_rate::switch_cpus2.inst     0.000001                       # mshr miss rate for demand accesses
system.cpu2.icache.demand_mshr_miss_rate::total     0.000001                       # mshr miss rate for demand accesses
system.cpu2.icache.overall_mshr_miss_rate::switch_cpus2.inst     0.000001                       # mshr miss rate for overall accesses
system.cpu2.icache.overall_mshr_miss_rate::total     0.000001                       # mshr miss rate for overall accesses
system.cpu2.icache.ReadReq_avg_mshr_miss_latency::switch_cpus2.inst 135278.928571                       # average ReadReq mshr miss latency
system.cpu2.icache.ReadReq_avg_mshr_miss_latency::total 135278.928571                       # average ReadReq mshr miss latency
system.cpu2.icache.demand_avg_mshr_miss_latency::switch_cpus2.inst 135278.928571                       # average overall mshr miss latency
system.cpu2.icache.demand_avg_mshr_miss_latency::total 135278.928571                       # average overall mshr miss latency
system.cpu2.icache.overall_avg_mshr_miss_latency::switch_cpus2.inst 135278.928571                       # average overall mshr miss latency
system.cpu2.icache.overall_avg_mshr_miss_latency::total 135278.928571                       # average overall mshr miss latency
system.cpu2.icache.no_allocate_misses               0                       # Number of misses that were no-allocate
system.cpu2.dcache.replacements                 69254                       # number of replacements
system.cpu2.dcache.tagsinuse                      256                       # Cycle average of tags in use
system.cpu2.dcache.total_refs               179521903                       # Total number of references to valid blocks.
system.cpu2.dcache.sampled_refs                 69510                       # Sample count of references to valid blocks.
system.cpu2.dcache.avg_refs               2582.677356                       # Average number of references to valid blocks.
system.cpu2.dcache.warmup_cycle                     0                       # Cycle when the warmup percentage was hit.
system.cpu2.dcache.occ_blocks::switch_cpus2.data   230.362749                       # Average occupied blocks per requestor
system.cpu2.dcache.occ_blocks::cpu2.data    25.637251                       # Average occupied blocks per requestor
system.cpu2.dcache.occ_percent::switch_cpus2.data     0.899854                       # Average percentage of cache occupancy
system.cpu2.dcache.occ_percent::cpu2.data     0.100146                       # Average percentage of cache occupancy
system.cpu2.dcache.occ_percent::total               1                       # Average percentage of cache occupancy
system.cpu2.dcache.ReadReq_hits::switch_cpus2.data     10061368                       # number of ReadReq hits
system.cpu2.dcache.ReadReq_hits::total       10061368                       # number of ReadReq hits
system.cpu2.dcache.WriteReq_hits::switch_cpus2.data      6660243                       # number of WriteReq hits
system.cpu2.dcache.WriteReq_hits::total       6660243                       # number of WriteReq hits
system.cpu2.dcache.LoadLockedReq_hits::switch_cpus2.data        21561                       # number of LoadLockedReq hits
system.cpu2.dcache.LoadLockedReq_hits::total        21561                       # number of LoadLockedReq hits
system.cpu2.dcache.StoreCondReq_hits::switch_cpus2.data        15748                       # number of StoreCondReq hits
system.cpu2.dcache.StoreCondReq_hits::total        15748                       # number of StoreCondReq hits
system.cpu2.dcache.demand_hits::switch_cpus2.data     16721611                       # number of demand (read+write) hits
system.cpu2.dcache.demand_hits::total        16721611                       # number of demand (read+write) hits
system.cpu2.dcache.overall_hits::switch_cpus2.data     16721611                       # number of overall hits
system.cpu2.dcache.overall_hits::total       16721611                       # number of overall hits
system.cpu2.dcache.ReadReq_misses::switch_cpus2.data       149459                       # number of ReadReq misses
system.cpu2.dcache.ReadReq_misses::total       149459                       # number of ReadReq misses
system.cpu2.dcache.demand_misses::switch_cpus2.data       149459                       # number of demand (read+write) misses
system.cpu2.dcache.demand_misses::total        149459                       # number of demand (read+write) misses
system.cpu2.dcache.overall_misses::switch_cpus2.data       149459                       # number of overall misses
system.cpu2.dcache.overall_misses::total       149459                       # number of overall misses
system.cpu2.dcache.ReadReq_miss_latency::switch_cpus2.data   8014910103                       # number of ReadReq miss cycles
system.cpu2.dcache.ReadReq_miss_latency::total   8014910103                       # number of ReadReq miss cycles
system.cpu2.dcache.demand_miss_latency::switch_cpus2.data   8014910103                       # number of demand (read+write) miss cycles
system.cpu2.dcache.demand_miss_latency::total   8014910103                       # number of demand (read+write) miss cycles
system.cpu2.dcache.overall_miss_latency::switch_cpus2.data   8014910103                       # number of overall miss cycles
system.cpu2.dcache.overall_miss_latency::total   8014910103                       # number of overall miss cycles
system.cpu2.dcache.ReadReq_accesses::switch_cpus2.data     10210827                       # number of ReadReq accesses(hits+misses)
system.cpu2.dcache.ReadReq_accesses::total     10210827                       # number of ReadReq accesses(hits+misses)
system.cpu2.dcache.WriteReq_accesses::switch_cpus2.data      6660243                       # number of WriteReq accesses(hits+misses)
system.cpu2.dcache.WriteReq_accesses::total      6660243                       # number of WriteReq accesses(hits+misses)
system.cpu2.dcache.LoadLockedReq_accesses::switch_cpus2.data        21561                       # number of LoadLockedReq accesses(hits+misses)
system.cpu2.dcache.LoadLockedReq_accesses::total        21561                       # number of LoadLockedReq accesses(hits+misses)
system.cpu2.dcache.StoreCondReq_accesses::switch_cpus2.data        15748                       # number of StoreCondReq accesses(hits+misses)
system.cpu2.dcache.StoreCondReq_accesses::total        15748                       # number of StoreCondReq accesses(hits+misses)
system.cpu2.dcache.demand_accesses::switch_cpus2.data     16871070                       # number of demand (read+write) accesses
system.cpu2.dcache.demand_accesses::total     16871070                       # number of demand (read+write) accesses
system.cpu2.dcache.overall_accesses::switch_cpus2.data     16871070                       # number of overall (read+write) accesses
system.cpu2.dcache.overall_accesses::total     16871070                       # number of overall (read+write) accesses
system.cpu2.dcache.ReadReq_miss_rate::switch_cpus2.data     0.014637                       # miss rate for ReadReq accesses
system.cpu2.dcache.ReadReq_miss_rate::total     0.014637                       # miss rate for ReadReq accesses
system.cpu2.dcache.demand_miss_rate::switch_cpus2.data     0.008859                       # miss rate for demand accesses
system.cpu2.dcache.demand_miss_rate::total     0.008859                       # miss rate for demand accesses
system.cpu2.dcache.overall_miss_rate::switch_cpus2.data     0.008859                       # miss rate for overall accesses
system.cpu2.dcache.overall_miss_rate::total     0.008859                       # miss rate for overall accesses
system.cpu2.dcache.ReadReq_avg_miss_latency::switch_cpus2.data 53626.145652                       # average ReadReq miss latency
system.cpu2.dcache.ReadReq_avg_miss_latency::total 53626.145652                       # average ReadReq miss latency
system.cpu2.dcache.demand_avg_miss_latency::switch_cpus2.data 53626.145652                       # average overall miss latency
system.cpu2.dcache.demand_avg_miss_latency::total 53626.145652                       # average overall miss latency
system.cpu2.dcache.overall_avg_miss_latency::switch_cpus2.data 53626.145652                       # average overall miss latency
system.cpu2.dcache.overall_avg_miss_latency::total 53626.145652                       # average overall miss latency
system.cpu2.dcache.blocked_cycles::no_mshrs            0                       # number of cycles access was blocked
system.cpu2.dcache.blocked_cycles::no_targets            0                       # number of cycles access was blocked
system.cpu2.dcache.blocked::no_mshrs                0                       # number of cycles access was blocked
system.cpu2.dcache.blocked::no_targets              0                       # number of cycles access was blocked
system.cpu2.dcache.avg_blocked_cycles::no_mshrs          nan                       # average number of cycles each access was blocked
system.cpu2.dcache.avg_blocked_cycles::no_targets          nan                       # average number of cycles each access was blocked
system.cpu2.dcache.fast_writes                      0                       # number of fast writes performed
system.cpu2.dcache.cache_copies                     0                       # number of cache copies performed
system.cpu2.dcache.writebacks::writebacks        19646                       # number of writebacks
system.cpu2.dcache.writebacks::total            19646                       # number of writebacks
system.cpu2.dcache.ReadReq_mshr_hits::switch_cpus2.data        80205                       # number of ReadReq MSHR hits
system.cpu2.dcache.ReadReq_mshr_hits::total        80205                       # number of ReadReq MSHR hits
system.cpu2.dcache.demand_mshr_hits::switch_cpus2.data        80205                       # number of demand (read+write) MSHR hits
system.cpu2.dcache.demand_mshr_hits::total        80205                       # number of demand (read+write) MSHR hits
system.cpu2.dcache.overall_mshr_hits::switch_cpus2.data        80205                       # number of overall MSHR hits
system.cpu2.dcache.overall_mshr_hits::total        80205                       # number of overall MSHR hits
system.cpu2.dcache.ReadReq_mshr_misses::switch_cpus2.data        69254                       # number of ReadReq MSHR misses
system.cpu2.dcache.ReadReq_mshr_misses::total        69254                       # number of ReadReq MSHR misses
system.cpu2.dcache.demand_mshr_misses::switch_cpus2.data        69254                       # number of demand (read+write) MSHR misses
system.cpu2.dcache.demand_mshr_misses::total        69254                       # number of demand (read+write) MSHR misses
system.cpu2.dcache.overall_mshr_misses::switch_cpus2.data        69254                       # number of overall MSHR misses
system.cpu2.dcache.overall_mshr_misses::total        69254                       # number of overall MSHR misses
system.cpu2.dcache.ReadReq_mshr_miss_latency::switch_cpus2.data   2607416156                       # number of ReadReq MSHR miss cycles
system.cpu2.dcache.ReadReq_mshr_miss_latency::total   2607416156                       # number of ReadReq MSHR miss cycles
system.cpu2.dcache.demand_mshr_miss_latency::switch_cpus2.data   2607416156                       # number of demand (read+write) MSHR miss cycles
system.cpu2.dcache.demand_mshr_miss_latency::total   2607416156                       # number of demand (read+write) MSHR miss cycles
system.cpu2.dcache.overall_mshr_miss_latency::switch_cpus2.data   2607416156                       # number of overall MSHR miss cycles
system.cpu2.dcache.overall_mshr_miss_latency::total   2607416156                       # number of overall MSHR miss cycles
system.cpu2.dcache.ReadReq_mshr_miss_rate::switch_cpus2.data     0.006782                       # mshr miss rate for ReadReq accesses
system.cpu2.dcache.ReadReq_mshr_miss_rate::total     0.006782                       # mshr miss rate for ReadReq accesses
system.cpu2.dcache.demand_mshr_miss_rate::switch_cpus2.data     0.004105                       # mshr miss rate for demand accesses
system.cpu2.dcache.demand_mshr_miss_rate::total     0.004105                       # mshr miss rate for demand accesses
system.cpu2.dcache.overall_mshr_miss_rate::switch_cpus2.data     0.004105                       # mshr miss rate for overall accesses
system.cpu2.dcache.overall_mshr_miss_rate::total     0.004105                       # mshr miss rate for overall accesses
system.cpu2.dcache.ReadReq_avg_mshr_miss_latency::switch_cpus2.data 37650.044127                       # average ReadReq mshr miss latency
system.cpu2.dcache.ReadReq_avg_mshr_miss_latency::total 37650.044127                       # average ReadReq mshr miss latency
system.cpu2.dcache.demand_avg_mshr_miss_latency::switch_cpus2.data 37650.044127                       # average overall mshr miss latency
system.cpu2.dcache.demand_avg_mshr_miss_latency::total 37650.044127                       # average overall mshr miss latency
system.cpu2.dcache.overall_avg_mshr_miss_latency::switch_cpus2.data 37650.044127                       # average overall mshr miss latency
system.cpu2.dcache.overall_avg_mshr_miss_latency::total 37650.044127                       # average overall mshr miss latency
system.cpu2.dcache.no_allocate_misses               0                       # Number of misses that were no-allocate

---------- End Simulation Statistics   ----------
