
---------- Begin Simulation Statistics ----------
final_tick                               2000000000000                       # Number of ticks from beginning of simulation (restored from checkpoints and never reset)
host_inst_rate                                  99652                       # Simulator instruction rate (inst/s)
host_mem_usage                              201491404                       # Number of bytes of host memory used
host_op_rate                                   111014                       # Simulator op (including micro ops) rate (op/s)
host_seconds                                 51252.34                       # Real time elapsed on the host
host_tick_rate                               20893891                       # Simulator tick rate (ticks/s)
sim_freq                                 1000000000000                       # Frequency of simulated ticks
sim_insts                                  5107385318                       # Number of instructions simulated
sim_ops                                    5689702310                       # Number of ops (including micro ops) simulated
sim_seconds                                  1.070861                       # Number of seconds simulated
sim_ticks                                1070860687724                       # Number of ticks simulated
system.cpu.committedInsts                           0                       # Number of instructions committed
system.cpu.committedOps                             0                       # Number of ops (including micro ops) committed
system.cpu.dtb.accesses                             0                       # DTB accesses
system.cpu.dtb.align_faults                         0                       # Number of TLB faults due to alignment restrictions
system.cpu.dtb.domain_faults                        0                       # Number of TLB faults due to domain restrictions
system.cpu.dtb.flush_entries                        0                       # Number of entries that have been flushed from TLB
system.cpu.dtb.flush_tlb                            0                       # Number of times complete TLB was flushed
system.cpu.dtb.flush_tlb_asid                       0                       # Number of times TLB was flushed by ASID
system.cpu.dtb.flush_tlb_mva                        0                       # Number of times TLB was flushed by MVA
system.cpu.dtb.flush_tlb_mva_asid                   0                       # Number of times TLB was flushed by MVA & ASID
system.cpu.dtb.hits                                 0                       # DTB hits
system.cpu.dtb.inst_accesses                        0                       # ITB inst accesses
system.cpu.dtb.inst_hits                            0                       # ITB inst hits
system.cpu.dtb.inst_misses                          0                       # ITB inst misses
system.cpu.dtb.misses                               0                       # DTB misses
system.cpu.dtb.perms_faults                         0                       # Number of TLB faults due to permissions restrictions
system.cpu.dtb.prefetch_faults                      0                       # Number of TLB faults due to prefetch
system.cpu.dtb.read_accesses                        0                       # DTB read accesses
system.cpu.dtb.read_hits                            0                       # DTB read hits
system.cpu.dtb.read_misses                          0                       # DTB read misses
system.cpu.dtb.stage2_mmu.stage2_tlb.accesses            0                       # DTB accesses
system.cpu.dtb.stage2_mmu.stage2_tlb.align_faults            0                       # Number of TLB faults due to alignment restrictions
system.cpu.dtb.stage2_mmu.stage2_tlb.domain_faults            0                       # Number of TLB faults due to domain restrictions
system.cpu.dtb.stage2_mmu.stage2_tlb.flush_entries            0                       # Number of entries that have been flushed from TLB
system.cpu.dtb.stage2_mmu.stage2_tlb.flush_tlb            0                       # Number of times complete TLB was flushed
system.cpu.dtb.stage2_mmu.stage2_tlb.flush_tlb_asid            0                       # Number of times TLB was flushed by ASID
system.cpu.dtb.stage2_mmu.stage2_tlb.flush_tlb_mva            0                       # Number of times TLB was flushed by MVA
system.cpu.dtb.stage2_mmu.stage2_tlb.flush_tlb_mva_asid            0                       # Number of times TLB was flushed by MVA & ASID
system.cpu.dtb.stage2_mmu.stage2_tlb.hits            0                       # DTB hits
system.cpu.dtb.stage2_mmu.stage2_tlb.inst_accesses            0                       # ITB inst accesses
system.cpu.dtb.stage2_mmu.stage2_tlb.inst_hits            0                       # ITB inst hits
system.cpu.dtb.stage2_mmu.stage2_tlb.inst_misses            0                       # ITB inst misses
system.cpu.dtb.stage2_mmu.stage2_tlb.misses            0                       # DTB misses
system.cpu.dtb.stage2_mmu.stage2_tlb.perms_faults            0                       # Number of TLB faults due to permissions restrictions
system.cpu.dtb.stage2_mmu.stage2_tlb.prefetch_faults            0                       # Number of TLB faults due to prefetch
system.cpu.dtb.stage2_mmu.stage2_tlb.read_accesses            0                       # DTB read accesses
system.cpu.dtb.stage2_mmu.stage2_tlb.read_hits            0                       # DTB read hits
system.cpu.dtb.stage2_mmu.stage2_tlb.read_misses            0                       # DTB read misses
system.cpu.dtb.stage2_mmu.stage2_tlb.walker.walkRequestOrigin_Requested::Data            0                       # Table walker requests started/completed, data/inst
system.cpu.dtb.stage2_mmu.stage2_tlb.walker.walkRequestOrigin_Requested::Inst            0                       # Table walker requests started/completed, data/inst
system.cpu.dtb.stage2_mmu.stage2_tlb.walker.walkRequestOrigin_Requested::total            0                       # Table walker requests started/completed, data/inst
system.cpu.dtb.stage2_mmu.stage2_tlb.walker.walkRequestOrigin_Completed::Data            0                       # Table walker requests started/completed, data/inst
system.cpu.dtb.stage2_mmu.stage2_tlb.walker.walkRequestOrigin_Completed::Inst            0                       # Table walker requests started/completed, data/inst
system.cpu.dtb.stage2_mmu.stage2_tlb.walker.walkRequestOrigin_Completed::total            0                       # Table walker requests started/completed, data/inst
system.cpu.dtb.stage2_mmu.stage2_tlb.walker.walkRequestOrigin::total            0                       # Table walker requests started/completed, data/inst
system.cpu.dtb.stage2_mmu.stage2_tlb.walker.walks            0                       # Table walker walks requested
system.cpu.dtb.stage2_mmu.stage2_tlb.write_accesses            0                       # DTB write accesses
system.cpu.dtb.stage2_mmu.stage2_tlb.write_hits            0                       # DTB write hits
system.cpu.dtb.stage2_mmu.stage2_tlb.write_misses            0                       # DTB write misses
system.cpu.dtb.walker.walkRequestOrigin_Requested::Data            0                       # Table walker requests started/completed, data/inst
system.cpu.dtb.walker.walkRequestOrigin_Requested::Inst            0                       # Table walker requests started/completed, data/inst
system.cpu.dtb.walker.walkRequestOrigin_Requested::total            0                       # Table walker requests started/completed, data/inst
system.cpu.dtb.walker.walkRequestOrigin_Completed::Data            0                       # Table walker requests started/completed, data/inst
system.cpu.dtb.walker.walkRequestOrigin_Completed::Inst            0                       # Table walker requests started/completed, data/inst
system.cpu.dtb.walker.walkRequestOrigin_Completed::total            0                       # Table walker requests started/completed, data/inst
system.cpu.dtb.walker.walkRequestOrigin::total            0                       # Table walker requests started/completed, data/inst
system.cpu.dtb.walker.walks                         0                       # Table walker walks requested
system.cpu.dtb.write_accesses                       0                       # DTB write accesses
system.cpu.dtb.write_hits                           0                       # DTB write hits
system.cpu.dtb.write_misses                         0                       # DTB write misses
system.cpu.idle_fraction                            0                       # Percentage of idle cycles
system.cpu.itb.accesses                             0                       # DTB accesses
system.cpu.itb.align_faults                         0                       # Number of TLB faults due to alignment restrictions
system.cpu.itb.domain_faults                        0                       # Number of TLB faults due to domain restrictions
system.cpu.itb.flush_entries                        0                       # Number of entries that have been flushed from TLB
system.cpu.itb.flush_tlb                            0                       # Number of times complete TLB was flushed
system.cpu.itb.flush_tlb_asid                       0                       # Number of times TLB was flushed by ASID
system.cpu.itb.flush_tlb_mva                        0                       # Number of times TLB was flushed by MVA
system.cpu.itb.flush_tlb_mva_asid                   0                       # Number of times TLB was flushed by MVA & ASID
system.cpu.itb.hits                                 0                       # DTB hits
system.cpu.itb.inst_accesses                        0                       # ITB inst accesses
system.cpu.itb.inst_hits                            0                       # ITB inst hits
system.cpu.itb.inst_misses                          0                       # ITB inst misses
system.cpu.itb.misses                               0                       # DTB misses
system.cpu.itb.perms_faults                         0                       # Number of TLB faults due to permissions restrictions
system.cpu.itb.prefetch_faults                      0                       # Number of TLB faults due to prefetch
system.cpu.itb.read_accesses                        0                       # DTB read accesses
system.cpu.itb.read_hits                            0                       # DTB read hits
system.cpu.itb.read_misses                          0                       # DTB read misses
system.cpu.itb.stage2_mmu.stage2_tlb.accesses            0                       # DTB accesses
system.cpu.itb.stage2_mmu.stage2_tlb.align_faults            0                       # Number of TLB faults due to alignment restrictions
system.cpu.itb.stage2_mmu.stage2_tlb.domain_faults            0                       # Number of TLB faults due to domain restrictions
system.cpu.itb.stage2_mmu.stage2_tlb.flush_entries            0                       # Number of entries that have been flushed from TLB
system.cpu.itb.stage2_mmu.stage2_tlb.flush_tlb            0                       # Number of times complete TLB was flushed
system.cpu.itb.stage2_mmu.stage2_tlb.flush_tlb_asid            0                       # Number of times TLB was flushed by ASID
system.cpu.itb.stage2_mmu.stage2_tlb.flush_tlb_mva            0                       # Number of times TLB was flushed by MVA
system.cpu.itb.stage2_mmu.stage2_tlb.flush_tlb_mva_asid            0                       # Number of times TLB was flushed by MVA & ASID
system.cpu.itb.stage2_mmu.stage2_tlb.hits            0                       # DTB hits
system.cpu.itb.stage2_mmu.stage2_tlb.inst_accesses            0                       # ITB inst accesses
system.cpu.itb.stage2_mmu.stage2_tlb.inst_hits            0                       # ITB inst hits
system.cpu.itb.stage2_mmu.stage2_tlb.inst_misses            0                       # ITB inst misses
system.cpu.itb.stage2_mmu.stage2_tlb.misses            0                       # DTB misses
system.cpu.itb.stage2_mmu.stage2_tlb.perms_faults            0                       # Number of TLB faults due to permissions restrictions
system.cpu.itb.stage2_mmu.stage2_tlb.prefetch_faults            0                       # Number of TLB faults due to prefetch
system.cpu.itb.stage2_mmu.stage2_tlb.read_accesses            0                       # DTB read accesses
system.cpu.itb.stage2_mmu.stage2_tlb.read_hits            0                       # DTB read hits
system.cpu.itb.stage2_mmu.stage2_tlb.read_misses            0                       # DTB read misses
system.cpu.itb.stage2_mmu.stage2_tlb.walker.walkRequestOrigin_Requested::Data            0                       # Table walker requests started/completed, data/inst
system.cpu.itb.stage2_mmu.stage2_tlb.walker.walkRequestOrigin_Requested::Inst            0                       # Table walker requests started/completed, data/inst
system.cpu.itb.stage2_mmu.stage2_tlb.walker.walkRequestOrigin_Requested::total            0                       # Table walker requests started/completed, data/inst
system.cpu.itb.stage2_mmu.stage2_tlb.walker.walkRequestOrigin_Completed::Data            0                       # Table walker requests started/completed, data/inst
system.cpu.itb.stage2_mmu.stage2_tlb.walker.walkRequestOrigin_Completed::Inst            0                       # Table walker requests started/completed, data/inst
system.cpu.itb.stage2_mmu.stage2_tlb.walker.walkRequestOrigin_Completed::total            0                       # Table walker requests started/completed, data/inst
system.cpu.itb.stage2_mmu.stage2_tlb.walker.walkRequestOrigin::total            0                       # Table walker requests started/completed, data/inst
system.cpu.itb.stage2_mmu.stage2_tlb.walker.walks            0                       # Table walker walks requested
system.cpu.itb.stage2_mmu.stage2_tlb.write_accesses            0                       # DTB write accesses
system.cpu.itb.stage2_mmu.stage2_tlb.write_hits            0                       # DTB write hits
system.cpu.itb.stage2_mmu.stage2_tlb.write_misses            0                       # DTB write misses
system.cpu.itb.walker.walkRequestOrigin_Requested::Data            0                       # Table walker requests started/completed, data/inst
system.cpu.itb.walker.walkRequestOrigin_Requested::Inst            0                       # Table walker requests started/completed, data/inst
system.cpu.itb.walker.walkRequestOrigin_Requested::total            0                       # Table walker requests started/completed, data/inst
system.cpu.itb.walker.walkRequestOrigin_Completed::Data            0                       # Table walker requests started/completed, data/inst
system.cpu.itb.walker.walkRequestOrigin_Completed::Inst            0                       # Table walker requests started/completed, data/inst
system.cpu.itb.walker.walkRequestOrigin_Completed::total            0                       # Table walker requests started/completed, data/inst
system.cpu.itb.walker.walkRequestOrigin::total            0                       # Table walker requests started/completed, data/inst
system.cpu.itb.walker.walks                         0                       # Table walker walks requested
system.cpu.itb.write_accesses                       0                       # DTB write accesses
system.cpu.itb.write_hits                           0                       # DTB write hits
system.cpu.itb.write_misses                         0                       # DTB write misses
system.cpu.not_idle_fraction                        1                       # Percentage of non-idle cycles
system.cpu.numCycles                                0                       # number of cpu cycles simulated
system.cpu.numWorkItemsCompleted                    0                       # number of work items this cpu completed
system.cpu.numWorkItemsStarted                      0                       # number of work items this cpu started
system.cpu.num_busy_cycles                          0                       # Number of busy cycles
system.cpu.num_conditional_control_insts            0                       # number of instructions that are conditional controls
system.cpu.num_fp_alu_accesses                      0                       # Number of float alu accesses
system.cpu.num_fp_insts                             0                       # number of float instructions
system.cpu.num_fp_register_reads                    0                       # number of times the floating registers were read
system.cpu.num_fp_register_writes                   0                       # number of times the floating registers were written
system.cpu.num_func_calls                           0                       # number of times a function call or return occured
system.cpu.num_idle_cycles                          0                       # Number of idle cycles
system.cpu.num_int_alu_accesses                     0                       # Number of integer alu accesses
system.cpu.num_int_insts                            0                       # number of integer instructions
system.cpu.num_int_register_reads                   0                       # number of times the integer registers were read
system.cpu.num_int_register_writes                  0                       # number of times the integer registers were written
system.cpu.num_load_insts                           0                       # Number of load instructions
system.cpu.num_mem_refs                             0                       # number of memory refs
system.cpu.num_store_insts                          0                       # Number of store instructions
system.cpu.num_vec_alu_accesses                     0                       # Number of vector alu accesses
system.cpu.num_vec_insts                            0                       # number of vector instructions
system.cpu.num_vec_register_reads                   0                       # number of times the vector registers were read
system.cpu.num_vec_register_writes                  0                       # number of times the vector registers were written
system.cpu.op_class::No_OpClass                     0                       # Class of executed instruction
system.cpu.op_class::IntAlu                         0                       # Class of executed instruction
system.cpu.op_class::IntMult                        0                       # Class of executed instruction
system.cpu.op_class::IntDiv                         0                       # Class of executed instruction
system.cpu.op_class::FloatAdd                       0                       # Class of executed instruction
system.cpu.op_class::FloatCmp                       0                       # Class of executed instruction
system.cpu.op_class::FloatCvt                       0                       # Class of executed instruction
system.cpu.op_class::FloatMult                      0                       # Class of executed instruction
system.cpu.op_class::FloatMultAcc                   0                       # Class of executed instruction
system.cpu.op_class::FloatDiv                       0                       # Class of executed instruction
system.cpu.op_class::FloatMisc                      0                       # Class of executed instruction
system.cpu.op_class::FloatSqrt                      0                       # Class of executed instruction
system.cpu.op_class::SimdAdd                        0                       # Class of executed instruction
system.cpu.op_class::SimdAddAcc                     0                       # Class of executed instruction
system.cpu.op_class::SimdAlu                        0                       # Class of executed instruction
system.cpu.op_class::SimdCmp                        0                       # Class of executed instruction
system.cpu.op_class::SimdCvt                        0                       # Class of executed instruction
system.cpu.op_class::SimdMisc                       0                       # Class of executed instruction
system.cpu.op_class::SimdMult                       0                       # Class of executed instruction
system.cpu.op_class::SimdMultAcc                    0                       # Class of executed instruction
system.cpu.op_class::SimdShift                      0                       # Class of executed instruction
system.cpu.op_class::SimdShiftAcc                   0                       # Class of executed instruction
system.cpu.op_class::SimdDiv                        0                       # Class of executed instruction
system.cpu.op_class::SimdSqrt                       0                       # Class of executed instruction
system.cpu.op_class::SimdFloatAdd                   0                       # Class of executed instruction
system.cpu.op_class::SimdFloatAlu                   0                       # Class of executed instruction
system.cpu.op_class::SimdFloatCmp                   0                       # Class of executed instruction
system.cpu.op_class::SimdFloatCvt                   0                       # Class of executed instruction
system.cpu.op_class::SimdFloatDiv                   0                       # Class of executed instruction
system.cpu.op_class::SimdFloatMisc                  0                       # Class of executed instruction
system.cpu.op_class::SimdFloatMult                  0                       # Class of executed instruction
system.cpu.op_class::SimdFloatMultAcc               0                       # Class of executed instruction
system.cpu.op_class::SimdFloatSqrt                  0                       # Class of executed instruction
system.cpu.op_class::SimdReduceAdd                  0                       # Class of executed instruction
system.cpu.op_class::SimdReduceAlu                  0                       # Class of executed instruction
system.cpu.op_class::SimdReduceCmp                  0                       # Class of executed instruction
system.cpu.op_class::SimdFloatReduceAdd             0                       # Class of executed instruction
system.cpu.op_class::SimdFloatReduceCmp             0                       # Class of executed instruction
system.cpu.op_class::SimdAes                        0                       # Class of executed instruction
system.cpu.op_class::SimdAesMix                     0                       # Class of executed instruction
system.cpu.op_class::SimdSha1Hash                   0                       # Class of executed instruction
system.cpu.op_class::SimdSha1Hash2                  0                       # Class of executed instruction
system.cpu.op_class::SimdSha256Hash                 0                       # Class of executed instruction
system.cpu.op_class::SimdSha256Hash2                0                       # Class of executed instruction
system.cpu.op_class::SimdShaSigma2                  0                       # Class of executed instruction
system.cpu.op_class::SimdShaSigma3                  0                       # Class of executed instruction
system.cpu.op_class::SimdPredAlu                    0                       # Class of executed instruction
system.cpu.op_class::MemRead                        0                       # Class of executed instruction
system.cpu.op_class::MemWrite                       0                       # Class of executed instruction
system.cpu.op_class::FloatMemRead                   0                       # Class of executed instruction
system.cpu.op_class::FloatMemWrite                  0                       # Class of executed instruction
system.cpu.op_class::IprAccess                      0                       # Class of executed instruction
system.cpu.op_class::InstPrefetch                   0                       # Class of executed instruction
system.cpu.op_class::total                          0                       # Class of executed instruction
system.cpu.workload.numSyscalls                   143                       # Number of system calls
system.membus.snoop_filter.hit_multi_requests            0                       # Number of requests hitting in the snoop filter with multiple (>1) holders of the requested data.
system.membus.snoop_filter.hit_multi_snoops            0                       # Number of snoops hitting in the snoop filter with multiple (>1) holders of the requested data.
system.membus.snoop_filter.hit_single_requests      2037264                       # Number of requests hitting in the snoop filter with a single holder of the requested data.
system.membus.snoop_filter.hit_single_snoops            0                       # Number of snoops hitting in the snoop filter with a single holder of the requested data.
system.membus.snoop_filter.tot_requests       4074302                       # Total number of requests made to the snoop filter.
system.membus.snoop_filter.tot_snoops               0                       # Total number of snoops made to the snoop filter.
system.switch_cpus.branchPred.BTBCorrect            0                       # Number of correct BTB predictions (this stat may not work properly.
system.switch_cpus.branchPred.BTBHitPct     80.981849                       # BTB Hit Percentage
system.switch_cpus.branchPred.BTBHits       242439739                       # Number of BTB hits
system.switch_cpus.branchPred.BTBLookups    299375405                       # Number of BTB lookups
system.switch_cpus.branchPred.RASInCorrect            4                       # Number of incorrect RAS predictions.
system.switch_cpus.branchPred.condIncorrect      4737932                       # Number of conditional branches incorrect
system.switch_cpus.branchPred.condPredicted    416720929                       # Number of conditional branches predicted
system.switch_cpus.branchPred.indirectHits     15999338                       # Number of indirect target hits.
system.switch_cpus.branchPred.indirectLookups     16002785                       # Number of indirect predictor lookups.
system.switch_cpus.branchPred.indirectMisses         3447                       # Number of indirect misses.
system.switch_cpus.branchPred.lookups       492707710                       # Number of BP lookups
system.switch_cpus.branchPred.usedRAS        20619728                       # Number of times the RAS was used to get a target.
system.switch_cpus.branchPredindirectMispredicted          106                       # Number of mispredicted indirect branches.
system.switch_cpus.cc_regfile_reads         898040838                       # number of cc regfile reads
system.switch_cpus.cc_regfile_writes        885366677                       # number of cc regfile writes
system.switch_cpus.commit.amos                      0                       # Number of atomic instructions committed
system.switch_cpus.commit.branchMispredicts      4736632                       # The number of times a branch was mispredicted
system.switch_cpus.commit.branches          464204766                       # Number of branches committed
system.switch_cpus.commit.bw_lim_events     194342916                       # number cycles where commit BW limit reached
system.switch_cpus.commit.commitNonSpecStalls     21082313                       # The number of times commit has been forced to stall to communicate backwards
system.switch_cpus.commit.commitSquashedInsts    126154089                       # The number of squashed insts skipped by commit
system.switch_cpus.commit.committedInsts   3107385317                       # Number of instructions committed
system.switch_cpus.commit.committedOps     3461755718                       # Number of ops (including micro ops) committed
system.switch_cpus.commit.committed_per_cycle::samples   2549717821                       # Number of insts commited each cycle
system.switch_cpus.commit.committed_per_cycle::mean     1.357702                       # Number of insts commited each cycle
system.switch_cpus.commit.committed_per_cycle::stdev     2.434780                       # Number of insts commited each cycle
system.switch_cpus.commit.committed_per_cycle::underflows            0      0.00%      0.00% # Number of insts commited each cycle
system.switch_cpus.commit.committed_per_cycle::0   1541824861     60.47%     60.47% # Number of insts commited each cycle
system.switch_cpus.commit.committed_per_cycle::1    374682239     14.70%     75.17% # Number of insts commited each cycle
system.switch_cpus.commit.committed_per_cycle::2    230812106      9.05%     84.22% # Number of insts commited each cycle
system.switch_cpus.commit.committed_per_cycle::3     55588234      2.18%     86.40% # Number of insts commited each cycle
system.switch_cpus.commit.committed_per_cycle::4     32775538      1.29%     87.68% # Number of insts commited each cycle
system.switch_cpus.commit.committed_per_cycle::5     17358500      0.68%     88.36% # Number of insts commited each cycle
system.switch_cpus.commit.committed_per_cycle::6     30287404      1.19%     89.55% # Number of insts commited each cycle
system.switch_cpus.commit.committed_per_cycle::7     72046023      2.83%     92.38% # Number of insts commited each cycle
system.switch_cpus.commit.committed_per_cycle::8    194342916      7.62%    100.00% # Number of insts commited each cycle
system.switch_cpus.commit.committed_per_cycle::overflows            0      0.00%    100.00% # Number of insts commited each cycle
system.switch_cpus.commit.committed_per_cycle::min_value            0                       # Number of insts commited each cycle
system.switch_cpus.commit.committed_per_cycle::max_value            8                       # Number of insts commited each cycle
system.switch_cpus.commit.committed_per_cycle::total   2549717821                       # Number of insts commited each cycle
system.switch_cpus.commit.fp_insts                  0                       # Number of committed floating point instructions.
system.switch_cpus.commit.function_calls     18820355                       # Number of function calls committed.
system.switch_cpus.commit.int_insts        2961749980                       # Number of committed integer instructions.
system.switch_cpus.commit.loads             734206971                       # Number of loads committed
system.switch_cpus.commit.membars            23424395                       # Number of memory barriers committed
system.switch_cpus.commit.op_class_0::No_OpClass            0      0.00%      0.00% # Class of committed instruction
system.switch_cpus.commit.op_class_0::IntAlu   2104680221     60.80%     60.80% # Class of committed instruction
system.switch_cpus.commit.op_class_0::IntMult    121827619      3.52%     64.32% # Class of committed instruction
system.switch_cpus.commit.op_class_0::IntDiv      2342339      0.07%     64.38% # Class of committed instruction
system.switch_cpus.commit.op_class_0::FloatAdd     38953821      1.13%     65.51% # Class of committed instruction
system.switch_cpus.commit.op_class_0::FloatCmp     25767387      0.74%     66.25% # Class of committed instruction
system.switch_cpus.commit.op_class_0::FloatCvt     10604337      0.31%     66.56% # Class of committed instruction
system.switch_cpus.commit.op_class_0::FloatMult     35137027      1.02%     67.58% # Class of committed instruction
system.switch_cpus.commit.op_class_0::FloatMultAcc     42284274      1.22%     68.80% # Class of committed instruction
system.switch_cpus.commit.op_class_0::FloatDiv      5916801      0.17%     68.97% # Class of committed instruction
system.switch_cpus.commit.op_class_0::FloatMisc     41295649      1.19%     70.16% # Class of committed instruction
system.switch_cpus.commit.op_class_0::FloatSqrt            0      0.00%     70.16% # Class of committed instruction
system.switch_cpus.commit.op_class_0::SimdAdd            0      0.00%     70.16% # Class of committed instruction
system.switch_cpus.commit.op_class_0::SimdAddAcc            0      0.00%     70.16% # Class of committed instruction
system.switch_cpus.commit.op_class_0::SimdAlu      2342368      0.07%     70.23% # Class of committed instruction
system.switch_cpus.commit.op_class_0::SimdCmp            0      0.00%     70.23% # Class of committed instruction
system.switch_cpus.commit.op_class_0::SimdCvt            0      0.00%     70.23% # Class of committed instruction
system.switch_cpus.commit.op_class_0::SimdMisc            0      0.00%     70.23% # Class of committed instruction
system.switch_cpus.commit.op_class_0::SimdMult            0      0.00%     70.23% # Class of committed instruction
system.switch_cpus.commit.op_class_0::SimdMultAcc            0      0.00%     70.23% # Class of committed instruction
system.switch_cpus.commit.op_class_0::SimdShift            0      0.00%     70.23% # Class of committed instruction
system.switch_cpus.commit.op_class_0::SimdShiftAcc            0      0.00%     70.23% # Class of committed instruction
system.switch_cpus.commit.op_class_0::SimdDiv            0      0.00%     70.23% # Class of committed instruction
system.switch_cpus.commit.op_class_0::SimdSqrt            0      0.00%     70.23% # Class of committed instruction
system.switch_cpus.commit.op_class_0::SimdFloatAdd            0      0.00%     70.23% # Class of committed instruction
system.switch_cpus.commit.op_class_0::SimdFloatAlu            0      0.00%     70.23% # Class of committed instruction
system.switch_cpus.commit.op_class_0::SimdFloatCmp            0      0.00%     70.23% # Class of committed instruction
system.switch_cpus.commit.op_class_0::SimdFloatCvt            0      0.00%     70.23% # Class of committed instruction
system.switch_cpus.commit.op_class_0::SimdFloatDiv            0      0.00%     70.23% # Class of committed instruction
system.switch_cpus.commit.op_class_0::SimdFloatMisc            0      0.00%     70.23% # Class of committed instruction
system.switch_cpus.commit.op_class_0::SimdFloatMult            0      0.00%     70.23% # Class of committed instruction
system.switch_cpus.commit.op_class_0::SimdFloatMultAcc            0      0.00%     70.23% # Class of committed instruction
system.switch_cpus.commit.op_class_0::SimdFloatSqrt            0      0.00%     70.23% # Class of committed instruction
system.switch_cpus.commit.op_class_0::SimdReduceAdd            0      0.00%     70.23% # Class of committed instruction
system.switch_cpus.commit.op_class_0::SimdReduceAlu            0      0.00%     70.23% # Class of committed instruction
system.switch_cpus.commit.op_class_0::SimdReduceCmp            0      0.00%     70.23% # Class of committed instruction
system.switch_cpus.commit.op_class_0::SimdFloatReduceAdd            0      0.00%     70.23% # Class of committed instruction
system.switch_cpus.commit.op_class_0::SimdFloatReduceCmp            0      0.00%     70.23% # Class of committed instruction
system.switch_cpus.commit.op_class_0::SimdAes            0      0.00%     70.23% # Class of committed instruction
system.switch_cpus.commit.op_class_0::SimdAesMix            0      0.00%     70.23% # Class of committed instruction
system.switch_cpus.commit.op_class_0::SimdSha1Hash            0      0.00%     70.23% # Class of committed instruction
system.switch_cpus.commit.op_class_0::SimdSha1Hash2            0      0.00%     70.23% # Class of committed instruction
system.switch_cpus.commit.op_class_0::SimdSha256Hash            0      0.00%     70.23% # Class of committed instruction
system.switch_cpus.commit.op_class_0::SimdSha256Hash2            0      0.00%     70.23% # Class of committed instruction
system.switch_cpus.commit.op_class_0::SimdShaSigma2            0      0.00%     70.23% # Class of committed instruction
system.switch_cpus.commit.op_class_0::SimdShaSigma3            0      0.00%     70.23% # Class of committed instruction
system.switch_cpus.commit.op_class_0::SimdPredAlu            0      0.00%     70.23% # Class of committed instruction
system.switch_cpus.commit.op_class_0::MemRead    734206971     21.21%     91.44% # Class of committed instruction
system.switch_cpus.commit.op_class_0::MemWrite    296396904      8.56%    100.00% # Class of committed instruction
system.switch_cpus.commit.op_class_0::FloatMemRead            0      0.00%    100.00% # Class of committed instruction
system.switch_cpus.commit.op_class_0::FloatMemWrite            0      0.00%    100.00% # Class of committed instruction
system.switch_cpus.commit.op_class_0::IprAccess            0      0.00%    100.00% # Class of committed instruction
system.switch_cpus.commit.op_class_0::InstPrefetch            0      0.00%    100.00% # Class of committed instruction
system.switch_cpus.commit.op_class_0::total   3461755718                       # Class of committed instruction
system.switch_cpus.commit.refs             1030603875                       # Number of memory references committed
system.switch_cpus.commit.swp_count                 0                       # Number of s/w prefetches committed
system.switch_cpus.commit.vec_insts         310251103                       # Number of committed Vector instructions.
system.switch_cpus.committedInsts          3107385317                       # Number of Instructions Simulated
system.switch_cpus.committedOps            3461755718                       # Number of Ops (including micro ops) Simulated
system.switch_cpus.cpi                       0.826422                       # CPI: Cycles Per Instruction
system.switch_cpus.cpi_total                 0.826422                       # CPI: Total CPI of All Threads
system.switch_cpus.decode.BlockedCycles    1844794217                       # Number of cycles decode is blocked
system.switch_cpus.decode.BranchMispred          1316                       # Number of times decode detected a branch misprediction
system.switch_cpus.decode.BranchResolved    236046327                       # Number of times decode resolved a branch
system.switch_cpus.decode.DecodedInsts     3636508696                       # Number of instructions handled by decode
system.switch_cpus.decode.IdleCycles        143179264                       # Number of cycles decode is idle
system.switch_cpus.decode.RunCycles         452612844                       # Number of cycles decode is running
system.switch_cpus.decode.SquashCycles        4770702                       # Number of cycles decode is squashing
system.switch_cpus.decode.SquashedInsts          4689                       # Number of squashed instructions handled by decode
system.switch_cpus.decode.UnblockCycles     122653305                       # Number of cycles decode is unblocking
system.switch_cpus.dtb.accesses                     0                       # DTB accesses
system.switch_cpus.dtb.align_faults                 0                       # Number of TLB faults due to alignment restrictions
system.switch_cpus.dtb.domain_faults                0                       # Number of TLB faults due to domain restrictions
system.switch_cpus.dtb.flush_entries                0                       # Number of entries that have been flushed from TLB
system.switch_cpus.dtb.flush_tlb                    0                       # Number of times complete TLB was flushed
system.switch_cpus.dtb.flush_tlb_asid               0                       # Number of times TLB was flushed by ASID
system.switch_cpus.dtb.flush_tlb_mva                0                       # Number of times TLB was flushed by MVA
system.switch_cpus.dtb.flush_tlb_mva_asid            0                       # Number of times TLB was flushed by MVA & ASID
system.switch_cpus.dtb.hits                         0                       # DTB hits
system.switch_cpus.dtb.inst_accesses                0                       # ITB inst accesses
system.switch_cpus.dtb.inst_hits                    0                       # ITB inst hits
system.switch_cpus.dtb.inst_misses                  0                       # ITB inst misses
system.switch_cpus.dtb.misses                       0                       # DTB misses
system.switch_cpus.dtb.perms_faults                 0                       # Number of TLB faults due to permissions restrictions
system.switch_cpus.dtb.prefetch_faults              0                       # Number of TLB faults due to prefetch
system.switch_cpus.dtb.read_accesses                0                       # DTB read accesses
system.switch_cpus.dtb.read_hits                    0                       # DTB read hits
system.switch_cpus.dtb.read_misses                  0                       # DTB read misses
system.switch_cpus.dtb.stage2_mmu.stage2_tlb.accesses            0                       # DTB accesses
system.switch_cpus.dtb.stage2_mmu.stage2_tlb.align_faults            0                       # Number of TLB faults due to alignment restrictions
system.switch_cpus.dtb.stage2_mmu.stage2_tlb.domain_faults            0                       # Number of TLB faults due to domain restrictions
system.switch_cpus.dtb.stage2_mmu.stage2_tlb.flush_entries            0                       # Number of entries that have been flushed from TLB
system.switch_cpus.dtb.stage2_mmu.stage2_tlb.flush_tlb            0                       # Number of times complete TLB was flushed
system.switch_cpus.dtb.stage2_mmu.stage2_tlb.flush_tlb_asid            0                       # Number of times TLB was flushed by ASID
system.switch_cpus.dtb.stage2_mmu.stage2_tlb.flush_tlb_mva            0                       # Number of times TLB was flushed by MVA
system.switch_cpus.dtb.stage2_mmu.stage2_tlb.flush_tlb_mva_asid            0                       # Number of times TLB was flushed by MVA & ASID
system.switch_cpus.dtb.stage2_mmu.stage2_tlb.hits            0                       # DTB hits
system.switch_cpus.dtb.stage2_mmu.stage2_tlb.inst_accesses            0                       # ITB inst accesses
system.switch_cpus.dtb.stage2_mmu.stage2_tlb.inst_hits            0                       # ITB inst hits
system.switch_cpus.dtb.stage2_mmu.stage2_tlb.inst_misses            0                       # ITB inst misses
system.switch_cpus.dtb.stage2_mmu.stage2_tlb.misses            0                       # DTB misses
system.switch_cpus.dtb.stage2_mmu.stage2_tlb.perms_faults            0                       # Number of TLB faults due to permissions restrictions
system.switch_cpus.dtb.stage2_mmu.stage2_tlb.prefetch_faults            0                       # Number of TLB faults due to prefetch
system.switch_cpus.dtb.stage2_mmu.stage2_tlb.read_accesses            0                       # DTB read accesses
system.switch_cpus.dtb.stage2_mmu.stage2_tlb.read_hits            0                       # DTB read hits
system.switch_cpus.dtb.stage2_mmu.stage2_tlb.read_misses            0                       # DTB read misses
system.switch_cpus.dtb.stage2_mmu.stage2_tlb.walker.walkRequestOrigin_Requested::Data            0                       # Table walker requests started/completed, data/inst
system.switch_cpus.dtb.stage2_mmu.stage2_tlb.walker.walkRequestOrigin_Requested::Inst            0                       # Table walker requests started/completed, data/inst
system.switch_cpus.dtb.stage2_mmu.stage2_tlb.walker.walkRequestOrigin_Requested::total            0                       # Table walker requests started/completed, data/inst
system.switch_cpus.dtb.stage2_mmu.stage2_tlb.walker.walkRequestOrigin_Completed::Data            0                       # Table walker requests started/completed, data/inst
system.switch_cpus.dtb.stage2_mmu.stage2_tlb.walker.walkRequestOrigin_Completed::Inst            0                       # Table walker requests started/completed, data/inst
system.switch_cpus.dtb.stage2_mmu.stage2_tlb.walker.walkRequestOrigin_Completed::total            0                       # Table walker requests started/completed, data/inst
system.switch_cpus.dtb.stage2_mmu.stage2_tlb.walker.walkRequestOrigin::total            0                       # Table walker requests started/completed, data/inst
system.switch_cpus.dtb.stage2_mmu.stage2_tlb.walker.walks            0                       # Table walker walks requested
system.switch_cpus.dtb.stage2_mmu.stage2_tlb.write_accesses            0                       # DTB write accesses
system.switch_cpus.dtb.stage2_mmu.stage2_tlb.write_hits            0                       # DTB write hits
system.switch_cpus.dtb.stage2_mmu.stage2_tlb.write_misses            0                       # DTB write misses
system.switch_cpus.dtb.walker.walkRequestOrigin_Requested::Data            0                       # Table walker requests started/completed, data/inst
system.switch_cpus.dtb.walker.walkRequestOrigin_Requested::Inst            0                       # Table walker requests started/completed, data/inst
system.switch_cpus.dtb.walker.walkRequestOrigin_Requested::total            0                       # Table walker requests started/completed, data/inst
system.switch_cpus.dtb.walker.walkRequestOrigin_Completed::Data            0                       # Table walker requests started/completed, data/inst
system.switch_cpus.dtb.walker.walkRequestOrigin_Completed::Inst            0                       # Table walker requests started/completed, data/inst
system.switch_cpus.dtb.walker.walkRequestOrigin_Completed::total            0                       # Table walker requests started/completed, data/inst
system.switch_cpus.dtb.walker.walkRequestOrigin::total            0                       # Table walker requests started/completed, data/inst
system.switch_cpus.dtb.walker.walks                 0                       # Table walker walks requested
system.switch_cpus.dtb.write_accesses               0                       # DTB write accesses
system.switch_cpus.dtb.write_hits                   0                       # DTB write hits
system.switch_cpus.dtb.write_misses                 0                       # DTB write misses
system.switch_cpus.fetch.Branches           492707710                       # Number of branches that fetch encountered
system.switch_cpus.fetch.CacheLines         259559148                       # Number of cache lines fetched
system.switch_cpus.fetch.Cycles            2301241309                       # Number of cycles fetch has run and was not squashing or blocked
system.switch_cpus.fetch.IcacheSquashes        846718                       # Number of outstanding Icache misses that were squashed
system.switch_cpus.fetch.IcacheWaitRetryStallCycles           20                       # Number of stall cycles due to full MSHR
system.switch_cpus.fetch.Insts             3347119216                       # Number of instructions fetch has processed
system.switch_cpus.fetch.MiscStallCycles            2                       # Number of cycles fetch has spent waiting on interrupts, or bad addresses, or out of MSHRs
system.switch_cpus.fetch.SquashCycles         9544004                       # Number of cycles fetch has spent squashing
system.switch_cpus.fetch.branchRate          0.191864                       # Number of branch fetches per cycle
system.switch_cpus.fetch.icacheStallCycles    261997003                       # Number of cycles fetch is stalled on an Icache miss
system.switch_cpus.fetch.predictedBranches    279058805                       # Number of branches that fetch has predicted taken
system.switch_cpus.fetch.rate                1.303390                       # Number of inst fetches per cycle
system.switch_cpus.fetch.rateDist::samples   2568010336                       # Number of instructions fetched each cycle (Total)
system.switch_cpus.fetch.rateDist::mean      1.450872                       # Number of instructions fetched each cycle (Total)
system.switch_cpus.fetch.rateDist::stdev     2.803246                       # Number of instructions fetched each cycle (Total)
system.switch_cpus.fetch.rateDist::underflows            0      0.00%      0.00% # Number of instructions fetched each cycle (Total)
system.switch_cpus.fetch.rateDist::0       1844269466     71.82%     71.82% # Number of instructions fetched each cycle (Total)
system.switch_cpus.fetch.rateDist::1        169487172      6.60%     78.42% # Number of instructions fetched each cycle (Total)
system.switch_cpus.fetch.rateDist::2         36156571      1.41%     79.82% # Number of instructions fetched each cycle (Total)
system.switch_cpus.fetch.rateDist::3         58680922      2.29%     82.11% # Number of instructions fetched each cycle (Total)
system.switch_cpus.fetch.rateDist::4         53135003      2.07%     84.18% # Number of instructions fetched each cycle (Total)
system.switch_cpus.fetch.rateDist::5         25087169      0.98%     85.16% # Number of instructions fetched each cycle (Total)
system.switch_cpus.fetch.rateDist::6         31194944      1.21%     86.37% # Number of instructions fetched each cycle (Total)
system.switch_cpus.fetch.rateDist::7         17125845      0.67%     87.04% # Number of instructions fetched each cycle (Total)
system.switch_cpus.fetch.rateDist::8        332873244     12.96%    100.00% # Number of instructions fetched each cycle (Total)
system.switch_cpus.fetch.rateDist::overflows            0      0.00%    100.00% # Number of instructions fetched each cycle (Total)
system.switch_cpus.fetch.rateDist::min_value            0                       # Number of instructions fetched each cycle (Total)
system.switch_cpus.fetch.rateDist::max_value            8                       # Number of instructions fetched each cycle (Total)
system.switch_cpus.fetch.rateDist::total   2568010336                       # Number of instructions fetched each cycle (Total)
system.switch_cpus.idleCycles                     905                       # Total number of cycles that the CPU has spent unscheduled due to idling
system.switch_cpus.iew.branchMispredicts      5380726                       # Number of branch mispredicts detected at execute
system.switch_cpus.iew.exec_branches        473087487                       # Number of branches executed
system.switch_cpus.iew.exec_nop                     0                       # number of nop insts executed
system.switch_cpus.iew.exec_rate             1.384646                       # Inst execution rate
system.switch_cpus.iew.exec_refs           1082612393                       # number of memory reference insts executed
system.switch_cpus.iew.exec_stores          299779936                       # Number of stores executed
system.switch_cpus.iew.exec_swp                     0                       # number of swp insts executed
system.switch_cpus.iew.iewBlockCycles       234491844                       # Number of cycles IEW is blocking
system.switch_cpus.iew.iewDispLoadInsts     756719970                       # Number of dispatched load instructions
system.switch_cpus.iew.iewDispNonSpecInsts     21157207                       # Number of dispatched non-speculative instructions
system.switch_cpus.iew.iewDispSquashedInsts      1967402                       # Number of squashed instructions skipped by dispatch
system.switch_cpus.iew.iewDispStoreInsts    301849429                       # Number of dispatched store instructions
system.switch_cpus.iew.iewDispatchedInsts   3587815025                       # Number of instructions dispatched to IQ
system.switch_cpus.iew.iewExecLoadInsts     782832457                       # Number of load instructions executed
system.switch_cpus.iew.iewExecSquashedInsts      7545519                       # Number of squashed instructions skipped in execute
system.switch_cpus.iew.iewExecutedInsts    3555786581                       # Number of executed instructions
system.switch_cpus.iew.iewIQFullEvents        9874015                       # Number of times the IQ has become full, causing a stall
system.switch_cpus.iew.iewIdleCycles                0                       # Number of cycles IEW is idle
system.switch_cpus.iew.iewLSQFullEvents     108183043                       # Number of times the LSQ has become full, causing a stall
system.switch_cpus.iew.iewSquashCycles        4770702                       # Number of cycles IEW is squashing
system.switch_cpus.iew.iewUnblockCycles     121731061                       # Number of cycles IEW is unblocking
system.switch_cpus.iew.lsq.thread0.blockedLoads            0                       # Number of blocked loads due to partial load-store forwarding
system.switch_cpus.iew.lsq.thread0.cacheBlocked      1574467                       # Number of times an access to memory failed due to the cache being blocked
system.switch_cpus.iew.lsq.thread0.forwLoads     29631082                       # Number of loads that had data forwarded from stores
system.switch_cpus.iew.lsq.thread0.ignoredResponses          375                       # Number of memory responses ignored because the instruction is squashed
system.switch_cpus.iew.lsq.thread0.invAddrLoads            0                       # Number of loads ignored due to an invalid address
system.switch_cpus.iew.lsq.thread0.invAddrSwpfs            0                       # Number of software prefetches ignored due to an invalid address
system.switch_cpus.iew.lsq.thread0.memOrderViolation        46353                       # Number of memory ordering violations
system.switch_cpus.iew.lsq.thread0.rescheduledLoads     27194702                       # Number of loads that were rescheduled
system.switch_cpus.iew.lsq.thread0.squashedLoads     22512968                       # Number of loads squashed
system.switch_cpus.iew.lsq.thread0.squashedStores      5452525                       # Number of stores squashed
system.switch_cpus.iew.memOrderViolationEvents        46353                       # Number of memory order violations
system.switch_cpus.iew.predictedNotTakenIncorrect      1650552                       # Number of branches that were predicted not taken incorrectly
system.switch_cpus.iew.predictedTakenIncorrect      3730174                       # Number of branches that were predicted taken incorrectly
system.switch_cpus.iew.wb_consumers        3475409502                       # num instructions consuming a value
system.switch_cpus.iew.wb_count            3521304869                       # cumulative count of insts written-back
system.switch_cpus.iew.wb_fanout             0.682466                       # average fanout of values written-back
system.switch_cpus.iew.wb_producers        2371848152                       # num instructions producing a value
system.switch_cpus.iew.wb_rate               1.371219                       # insts written-back per cycle
system.switch_cpus.iew.wb_sent             3523001534                       # cumulative count of insts sent to commit
system.switch_cpus.int_regfile_reads       3971870657                       # number of integer regfile reads
system.switch_cpus.int_regfile_writes      2562222560                       # number of integer regfile writes
system.switch_cpus.ipc                       1.210036                       # IPC: Instructions Per Cycle
system.switch_cpus.ipc_total                 1.210036                       # IPC: Total IPC of All Threads
system.switch_cpus.iq.FU_type_0::No_OpClass          160      0.00%      0.00% # Type of FU issued
system.switch_cpus.iq.FU_type_0::IntAlu    2138443818     60.01%     60.01% # Type of FU issued
system.switch_cpus.iq.FU_type_0::IntMult    121838526      3.42%     63.43% # Type of FU issued
system.switch_cpus.iq.FU_type_0::IntDiv       2342339      0.07%     63.50% # Type of FU issued
system.switch_cpus.iq.FU_type_0::FloatAdd     41275939      1.16%     64.66% # Type of FU issued
system.switch_cpus.iq.FU_type_0::FloatCmp     25768337      0.72%     65.38% # Type of FU issued
system.switch_cpus.iq.FU_type_0::FloatCvt     11556318      0.32%     65.70% # Type of FU issued
system.switch_cpus.iq.FU_type_0::FloatMult     36318058      1.02%     66.72% # Type of FU issued
system.switch_cpus.iq.FU_type_0::FloatMultAcc     42284284      1.19%     67.91% # Type of FU issued
system.switch_cpus.iq.FU_type_0::FloatDiv      7084356      0.20%     68.11% # Type of FU issued
system.switch_cpus.iq.FU_type_0::FloatMisc     49864486      1.40%     69.51% # Type of FU issued
system.switch_cpus.iq.FU_type_0::FloatSqrt            0      0.00%     69.51% # Type of FU issued
system.switch_cpus.iq.FU_type_0::SimdAdd            0      0.00%     69.51% # Type of FU issued
system.switch_cpus.iq.FU_type_0::SimdAddAcc            0      0.00%     69.51% # Type of FU issued
system.switch_cpus.iq.FU_type_0::SimdAlu      2342368      0.07%     69.57% # Type of FU issued
system.switch_cpus.iq.FU_type_0::SimdCmp            0      0.00%     69.57% # Type of FU issued
system.switch_cpus.iq.FU_type_0::SimdCvt            0      0.00%     69.57% # Type of FU issued
system.switch_cpus.iq.FU_type_0::SimdMisc            3      0.00%     69.57% # Type of FU issued
system.switch_cpus.iq.FU_type_0::SimdMult            0      0.00%     69.57% # Type of FU issued
system.switch_cpus.iq.FU_type_0::SimdMultAcc            0      0.00%     69.57% # Type of FU issued
system.switch_cpus.iq.FU_type_0::SimdShift            0      0.00%     69.57% # Type of FU issued
system.switch_cpus.iq.FU_type_0::SimdShiftAcc            0      0.00%     69.57% # Type of FU issued
system.switch_cpus.iq.FU_type_0::SimdDiv            0      0.00%     69.57% # Type of FU issued
system.switch_cpus.iq.FU_type_0::SimdSqrt            0      0.00%     69.57% # Type of FU issued
system.switch_cpus.iq.FU_type_0::SimdFloatAdd            0      0.00%     69.57% # Type of FU issued
system.switch_cpus.iq.FU_type_0::SimdFloatAlu            0      0.00%     69.57% # Type of FU issued
system.switch_cpus.iq.FU_type_0::SimdFloatCmp            0      0.00%     69.57% # Type of FU issued
system.switch_cpus.iq.FU_type_0::SimdFloatCvt            0      0.00%     69.57% # Type of FU issued
system.switch_cpus.iq.FU_type_0::SimdFloatDiv            0      0.00%     69.57% # Type of FU issued
system.switch_cpus.iq.FU_type_0::SimdFloatMisc            0      0.00%     69.57% # Type of FU issued
system.switch_cpus.iq.FU_type_0::SimdFloatMult            0      0.00%     69.57% # Type of FU issued
system.switch_cpus.iq.FU_type_0::SimdFloatMultAcc            0      0.00%     69.57% # Type of FU issued
system.switch_cpus.iq.FU_type_0::SimdFloatSqrt            0      0.00%     69.57% # Type of FU issued
system.switch_cpus.iq.FU_type_0::SimdReduceAdd            0      0.00%     69.57% # Type of FU issued
system.switch_cpus.iq.FU_type_0::SimdReduceAlu            0      0.00%     69.57% # Type of FU issued
system.switch_cpus.iq.FU_type_0::SimdReduceCmp            0      0.00%     69.57% # Type of FU issued
system.switch_cpus.iq.FU_type_0::SimdFloatReduceAdd            0      0.00%     69.57% # Type of FU issued
system.switch_cpus.iq.FU_type_0::SimdFloatReduceCmp            0      0.00%     69.57% # Type of FU issued
system.switch_cpus.iq.FU_type_0::SimdAes            0      0.00%     69.57% # Type of FU issued
system.switch_cpus.iq.FU_type_0::SimdAesMix            0      0.00%     69.57% # Type of FU issued
system.switch_cpus.iq.FU_type_0::SimdSha1Hash            0      0.00%     69.57% # Type of FU issued
system.switch_cpus.iq.FU_type_0::SimdSha1Hash2            0      0.00%     69.57% # Type of FU issued
system.switch_cpus.iq.FU_type_0::SimdSha256Hash            0      0.00%     69.57% # Type of FU issued
system.switch_cpus.iq.FU_type_0::SimdSha256Hash2            0      0.00%     69.57% # Type of FU issued
system.switch_cpus.iq.FU_type_0::SimdShaSigma2            0      0.00%     69.57% # Type of FU issued
system.switch_cpus.iq.FU_type_0::SimdShaSigma3            0      0.00%     69.57% # Type of FU issued
system.switch_cpus.iq.FU_type_0::SimdPredAlu            0      0.00%     69.57% # Type of FU issued
system.switch_cpus.iq.FU_type_0::MemRead    784228982     22.01%     91.58% # Type of FU issued
system.switch_cpus.iq.FU_type_0::MemWrite    299984128      8.42%    100.00% # Type of FU issued
system.switch_cpus.iq.FU_type_0::FloatMemRead            0      0.00%    100.00% # Type of FU issued
system.switch_cpus.iq.FU_type_0::FloatMemWrite            0      0.00%    100.00% # Type of FU issued
system.switch_cpus.iq.FU_type_0::IprAccess            0      0.00%    100.00% # Type of FU issued
system.switch_cpus.iq.FU_type_0::InstPrefetch            0      0.00%    100.00% # Type of FU issued
system.switch_cpus.iq.FU_type_0::total     3563332102                       # Type of FU issued
system.switch_cpus.iq.fp_alu_accesses               0                       # Number of floating point alu accesses
system.switch_cpus.iq.fp_inst_queue_reads            0                       # Number of floating instruction queue reads
system.switch_cpus.iq.fp_inst_queue_wakeup_accesses            0                       # Number of floating instruction queue wakeup accesses
system.switch_cpus.iq.fp_inst_queue_writes            0                       # Number of floating instruction queue writes
system.switch_cpus.iq.fu_busy_cnt            62028379                       # FU busy when requested
system.switch_cpus.iq.fu_busy_rate           0.017407                       # FU busy rate (busy events/executed inst)
system.switch_cpus.iq.fu_full::No_OpClass            0      0.00%      0.00% # attempts to use FU when none available
system.switch_cpus.iq.fu_full::IntAlu        11763130     18.96%     18.96% # attempts to use FU when none available
system.switch_cpus.iq.fu_full::IntMult              0      0.00%     18.96% # attempts to use FU when none available
system.switch_cpus.iq.fu_full::IntDiv               0      0.00%     18.96% # attempts to use FU when none available
system.switch_cpus.iq.fu_full::FloatAdd             0      0.00%     18.96% # attempts to use FU when none available
system.switch_cpus.iq.fu_full::FloatCmp             0      0.00%     18.96% # attempts to use FU when none available
system.switch_cpus.iq.fu_full::FloatCvt           101      0.00%     18.96% # attempts to use FU when none available
system.switch_cpus.iq.fu_full::FloatMult      4559765      7.35%     26.32% # attempts to use FU when none available
system.switch_cpus.iq.fu_full::FloatMultAcc      2947709      4.75%     31.07% # attempts to use FU when none available
system.switch_cpus.iq.fu_full::FloatDiv            12      0.00%     31.07% # attempts to use FU when none available
system.switch_cpus.iq.fu_full::FloatMisc      1129574      1.82%     32.89% # attempts to use FU when none available
system.switch_cpus.iq.fu_full::FloatSqrt            0      0.00%     32.89% # attempts to use FU when none available
system.switch_cpus.iq.fu_full::SimdAdd              0      0.00%     32.89% # attempts to use FU when none available
system.switch_cpus.iq.fu_full::SimdAddAcc            0      0.00%     32.89% # attempts to use FU when none available
system.switch_cpus.iq.fu_full::SimdAlu              0      0.00%     32.89% # attempts to use FU when none available
system.switch_cpus.iq.fu_full::SimdCmp              0      0.00%     32.89% # attempts to use FU when none available
system.switch_cpus.iq.fu_full::SimdCvt              0      0.00%     32.89% # attempts to use FU when none available
system.switch_cpus.iq.fu_full::SimdMisc             0      0.00%     32.89% # attempts to use FU when none available
system.switch_cpus.iq.fu_full::SimdMult             0      0.00%     32.89% # attempts to use FU when none available
system.switch_cpus.iq.fu_full::SimdMultAcc            0      0.00%     32.89% # attempts to use FU when none available
system.switch_cpus.iq.fu_full::SimdShift            0      0.00%     32.89% # attempts to use FU when none available
system.switch_cpus.iq.fu_full::SimdShiftAcc            0      0.00%     32.89% # attempts to use FU when none available
system.switch_cpus.iq.fu_full::SimdDiv              0      0.00%     32.89% # attempts to use FU when none available
system.switch_cpus.iq.fu_full::SimdSqrt             0      0.00%     32.89% # attempts to use FU when none available
system.switch_cpus.iq.fu_full::SimdFloatAdd            0      0.00%     32.89% # attempts to use FU when none available
system.switch_cpus.iq.fu_full::SimdFloatAlu            0      0.00%     32.89% # attempts to use FU when none available
system.switch_cpus.iq.fu_full::SimdFloatCmp            0      0.00%     32.89% # attempts to use FU when none available
system.switch_cpus.iq.fu_full::SimdFloatCvt            0      0.00%     32.89% # attempts to use FU when none available
system.switch_cpus.iq.fu_full::SimdFloatDiv            0      0.00%     32.89% # attempts to use FU when none available
system.switch_cpus.iq.fu_full::SimdFloatMisc            0      0.00%     32.89% # attempts to use FU when none available
system.switch_cpus.iq.fu_full::SimdFloatMult            0      0.00%     32.89% # attempts to use FU when none available
system.switch_cpus.iq.fu_full::SimdFloatMultAcc            0      0.00%     32.89% # attempts to use FU when none available
system.switch_cpus.iq.fu_full::SimdFloatSqrt            0      0.00%     32.89% # attempts to use FU when none available
system.switch_cpus.iq.fu_full::SimdReduceAdd            0      0.00%     32.89% # attempts to use FU when none available
system.switch_cpus.iq.fu_full::SimdReduceAlu            0      0.00%     32.89% # attempts to use FU when none available
system.switch_cpus.iq.fu_full::SimdReduceCmp            0      0.00%     32.89% # attempts to use FU when none available
system.switch_cpus.iq.fu_full::SimdFloatReduceAdd            0      0.00%     32.89% # attempts to use FU when none available
system.switch_cpus.iq.fu_full::SimdFloatReduceCmp            0      0.00%     32.89% # attempts to use FU when none available
system.switch_cpus.iq.fu_full::SimdAes              0      0.00%     32.89% # attempts to use FU when none available
system.switch_cpus.iq.fu_full::SimdAesMix            0      0.00%     32.89% # attempts to use FU when none available
system.switch_cpus.iq.fu_full::SimdSha1Hash            0      0.00%     32.89% # attempts to use FU when none available
system.switch_cpus.iq.fu_full::SimdSha1Hash2            0      0.00%     32.89% # attempts to use FU when none available
system.switch_cpus.iq.fu_full::SimdSha256Hash            0      0.00%     32.89% # attempts to use FU when none available
system.switch_cpus.iq.fu_full::SimdSha256Hash2            0      0.00%     32.89% # attempts to use FU when none available
system.switch_cpus.iq.fu_full::SimdShaSigma2            0      0.00%     32.89% # attempts to use FU when none available
system.switch_cpus.iq.fu_full::SimdShaSigma3            0      0.00%     32.89% # attempts to use FU when none available
system.switch_cpus.iq.fu_full::SimdPredAlu            0      0.00%     32.89% # attempts to use FU when none available
system.switch_cpus.iq.fu_full::MemRead       26154739     42.17%     75.05% # attempts to use FU when none available
system.switch_cpus.iq.fu_full::MemWrite      15473349     24.95%    100.00% # attempts to use FU when none available
system.switch_cpus.iq.fu_full::FloatMemRead            0      0.00%    100.00% # attempts to use FU when none available
system.switch_cpus.iq.fu_full::FloatMemWrite            0      0.00%    100.00% # attempts to use FU when none available
system.switch_cpus.iq.fu_full::IprAccess            0      0.00%    100.00% # attempts to use FU when none available
system.switch_cpus.iq.fu_full::InstPrefetch            0      0.00%    100.00% # attempts to use FU when none available
system.switch_cpus.iq.int_alu_accesses     3247706112                       # Number of integer alu accesses
system.switch_cpus.iq.int_inst_queue_reads   9017355145                       # Number of integer instruction queue reads
system.switch_cpus.iq.int_inst_queue_wakeup_accesses   3184803522                       # Number of integer instruction queue wakeup accesses
system.switch_cpus.iq.int_inst_queue_writes   3271283328                       # Number of integer instruction queue writes
system.switch_cpus.iq.iqInstsAdded         3566657817                       # Number of instructions added to the IQ (excludes non-spec)
system.switch_cpus.iq.iqInstsIssued        3563332102                       # Number of instructions issued
system.switch_cpus.iq.iqNonSpecInstsAdded     21157208                       # Number of non-speculative instructions added to the IQ
system.switch_cpus.iq.iqSquashedInstsExamined    126059214                       # Number of squashed instructions iterated over during squash; mainly for profiling
system.switch_cpus.iq.iqSquashedInstsIssued        75076                       # Number of squashed instructions issued
system.switch_cpus.iq.iqSquashedNonSpecRemoved        74895                       # Number of squashed non-spec instructions that were removed
system.switch_cpus.iq.iqSquashedOperandsExamined    232224484                       # Number of squashed operands that are examined and possibly removed from graph
system.switch_cpus.iq.issued_per_cycle::samples   2568010336                       # Number of insts issued each cycle
system.switch_cpus.iq.issued_per_cycle::mean     1.387585                       # Number of insts issued each cycle
system.switch_cpus.iq.issued_per_cycle::stdev     2.001076                       # Number of insts issued each cycle
system.switch_cpus.iq.issued_per_cycle::underflows            0      0.00%      0.00% # Number of insts issued each cycle
system.switch_cpus.iq.issued_per_cycle::0   1317907560     51.32%     51.32% # Number of insts issued each cycle
system.switch_cpus.iq.issued_per_cycle::1    462507985     18.01%     69.33% # Number of insts issued each cycle
system.switch_cpus.iq.issued_per_cycle::2    231014241      9.00%     78.33% # Number of insts issued each cycle
system.switch_cpus.iq.issued_per_cycle::3    166677375      6.49%     84.82% # Number of insts issued each cycle
system.switch_cpus.iq.issued_per_cycle::4    120000319      4.67%     89.49% # Number of insts issued each cycle
system.switch_cpus.iq.issued_per_cycle::5     64125360      2.50%     91.99% # Number of insts issued each cycle
system.switch_cpus.iq.issued_per_cycle::6    134613421      5.24%     97.23% # Number of insts issued each cycle
system.switch_cpus.iq.issued_per_cycle::7     38857692      1.51%     98.74% # Number of insts issued each cycle
system.switch_cpus.iq.issued_per_cycle::8     32306383      1.26%    100.00% # Number of insts issued each cycle
system.switch_cpus.iq.issued_per_cycle::overflows            0      0.00%    100.00% # Number of insts issued each cycle
system.switch_cpus.iq.issued_per_cycle::min_value            0                       # Number of insts issued each cycle
system.switch_cpus.iq.issued_per_cycle::max_value            8                       # Number of insts issued each cycle
system.switch_cpus.iq.issued_per_cycle::total   2568010336                       # Number of insts issued each cycle
system.switch_cpus.iq.rate                   1.387584                       # Inst issue rate
system.switch_cpus.iq.vec_alu_accesses      377654209                       # Number of vector alu accesses
system.switch_cpus.iq.vec_inst_queue_reads    739422848                       # Number of vector instruction queue reads
system.switch_cpus.iq.vec_inst_queue_wakeup_accesses    336501347                       # Number of vector instruction queue wakeup accesses
system.switch_cpus.iq.vec_inst_queue_writes    442637191                       # Number of vector instruction queue writes
system.switch_cpus.itb.accesses                     0                       # DTB accesses
system.switch_cpus.itb.align_faults                 0                       # Number of TLB faults due to alignment restrictions
system.switch_cpus.itb.domain_faults                0                       # Number of TLB faults due to domain restrictions
system.switch_cpus.itb.flush_entries                0                       # Number of entries that have been flushed from TLB
system.switch_cpus.itb.flush_tlb                    0                       # Number of times complete TLB was flushed
system.switch_cpus.itb.flush_tlb_asid               0                       # Number of times TLB was flushed by ASID
system.switch_cpus.itb.flush_tlb_mva                0                       # Number of times TLB was flushed by MVA
system.switch_cpus.itb.flush_tlb_mva_asid            0                       # Number of times TLB was flushed by MVA & ASID
system.switch_cpus.itb.hits                         0                       # DTB hits
system.switch_cpus.itb.inst_accesses                0                       # ITB inst accesses
system.switch_cpus.itb.inst_hits                    0                       # ITB inst hits
system.switch_cpus.itb.inst_misses                  0                       # ITB inst misses
system.switch_cpus.itb.misses                       0                       # DTB misses
system.switch_cpus.itb.perms_faults                 0                       # Number of TLB faults due to permissions restrictions
system.switch_cpus.itb.prefetch_faults              0                       # Number of TLB faults due to prefetch
system.switch_cpus.itb.read_accesses                0                       # DTB read accesses
system.switch_cpus.itb.read_hits                    0                       # DTB read hits
system.switch_cpus.itb.read_misses                  0                       # DTB read misses
system.switch_cpus.itb.stage2_mmu.stage2_tlb.accesses            0                       # DTB accesses
system.switch_cpus.itb.stage2_mmu.stage2_tlb.align_faults            0                       # Number of TLB faults due to alignment restrictions
system.switch_cpus.itb.stage2_mmu.stage2_tlb.domain_faults            0                       # Number of TLB faults due to domain restrictions
system.switch_cpus.itb.stage2_mmu.stage2_tlb.flush_entries            0                       # Number of entries that have been flushed from TLB
system.switch_cpus.itb.stage2_mmu.stage2_tlb.flush_tlb            0                       # Number of times complete TLB was flushed
system.switch_cpus.itb.stage2_mmu.stage2_tlb.flush_tlb_asid            0                       # Number of times TLB was flushed by ASID
system.switch_cpus.itb.stage2_mmu.stage2_tlb.flush_tlb_mva            0                       # Number of times TLB was flushed by MVA
system.switch_cpus.itb.stage2_mmu.stage2_tlb.flush_tlb_mva_asid            0                       # Number of times TLB was flushed by MVA & ASID
system.switch_cpus.itb.stage2_mmu.stage2_tlb.hits            0                       # DTB hits
system.switch_cpus.itb.stage2_mmu.stage2_tlb.inst_accesses            0                       # ITB inst accesses
system.switch_cpus.itb.stage2_mmu.stage2_tlb.inst_hits            0                       # ITB inst hits
system.switch_cpus.itb.stage2_mmu.stage2_tlb.inst_misses            0                       # ITB inst misses
system.switch_cpus.itb.stage2_mmu.stage2_tlb.misses            0                       # DTB misses
system.switch_cpus.itb.stage2_mmu.stage2_tlb.perms_faults            0                       # Number of TLB faults due to permissions restrictions
system.switch_cpus.itb.stage2_mmu.stage2_tlb.prefetch_faults            0                       # Number of TLB faults due to prefetch
system.switch_cpus.itb.stage2_mmu.stage2_tlb.read_accesses            0                       # DTB read accesses
system.switch_cpus.itb.stage2_mmu.stage2_tlb.read_hits            0                       # DTB read hits
system.switch_cpus.itb.stage2_mmu.stage2_tlb.read_misses            0                       # DTB read misses
system.switch_cpus.itb.stage2_mmu.stage2_tlb.walker.walkRequestOrigin_Requested::Data            0                       # Table walker requests started/completed, data/inst
system.switch_cpus.itb.stage2_mmu.stage2_tlb.walker.walkRequestOrigin_Requested::Inst            0                       # Table walker requests started/completed, data/inst
system.switch_cpus.itb.stage2_mmu.stage2_tlb.walker.walkRequestOrigin_Requested::total            0                       # Table walker requests started/completed, data/inst
system.switch_cpus.itb.stage2_mmu.stage2_tlb.walker.walkRequestOrigin_Completed::Data            0                       # Table walker requests started/completed, data/inst
system.switch_cpus.itb.stage2_mmu.stage2_tlb.walker.walkRequestOrigin_Completed::Inst            0                       # Table walker requests started/completed, data/inst
system.switch_cpus.itb.stage2_mmu.stage2_tlb.walker.walkRequestOrigin_Completed::total            0                       # Table walker requests started/completed, data/inst
system.switch_cpus.itb.stage2_mmu.stage2_tlb.walker.walkRequestOrigin::total            0                       # Table walker requests started/completed, data/inst
system.switch_cpus.itb.stage2_mmu.stage2_tlb.walker.walks            0                       # Table walker walks requested
system.switch_cpus.itb.stage2_mmu.stage2_tlb.write_accesses            0                       # DTB write accesses
system.switch_cpus.itb.stage2_mmu.stage2_tlb.write_hits            0                       # DTB write hits
system.switch_cpus.itb.stage2_mmu.stage2_tlb.write_misses            0                       # DTB write misses
system.switch_cpus.itb.walker.walkRequestOrigin_Requested::Data            0                       # Table walker requests started/completed, data/inst
system.switch_cpus.itb.walker.walkRequestOrigin_Requested::Inst            0                       # Table walker requests started/completed, data/inst
system.switch_cpus.itb.walker.walkRequestOrigin_Requested::total            0                       # Table walker requests started/completed, data/inst
system.switch_cpus.itb.walker.walkRequestOrigin_Completed::Data            0                       # Table walker requests started/completed, data/inst
system.switch_cpus.itb.walker.walkRequestOrigin_Completed::Inst            0                       # Table walker requests started/completed, data/inst
system.switch_cpus.itb.walker.walkRequestOrigin_Completed::total            0                       # Table walker requests started/completed, data/inst
system.switch_cpus.itb.walker.walkRequestOrigin::total            0                       # Table walker requests started/completed, data/inst
system.switch_cpus.itb.walker.walks                 0                       # Table walker walks requested
system.switch_cpus.itb.write_accesses               0                       # DTB write accesses
system.switch_cpus.itb.write_hits                   0                       # DTB write hits
system.switch_cpus.itb.write_misses                 0                       # DTB write misses
system.switch_cpus.memDep0.conflictingLoads     65187494                       # Number of conflicting loads.
system.switch_cpus.memDep0.conflictingStores     17129979                       # Number of conflicting stores.
system.switch_cpus.memDep0.insertedLoads    756719970                       # Number of loads inserted to the mem dependence unit.
system.switch_cpus.memDep0.insertedStores    301849429                       # Number of stores inserted to the mem dependence unit.
system.switch_cpus.misc_regfile_reads      4187301188                       # number of misc regfile reads
system.switch_cpus.misc_regfile_writes      242992331                       # number of misc regfile writes
system.switch_cpus.numCycles               2568011241                       # number of cpu cycles simulated
system.switch_cpus.numWorkItemsCompleted            0                       # number of work items this cpu completed
[...]
system.cpu.dcache.demand_hits::.switch_cpus.data    929506274                       # number of demand (read+write) hits
system.cpu.dcache.demand_hits::total       1562881162                       # number of demand (read+write) hits
system.cpu.dcache.overall_hits::.cpu.data    633374888                       # number of overall hits
system.cpu.dcache.overall_hits::.switch_cpus.data    929506274                       # number of overall hits
system.cpu.dcache.overall_hits::total      1562881162                       # number of overall hits
system.cpu.dcache.demand_misses::.cpu.data      6166984                       # number of demand (read+write) misses
system.cpu.dcache.demand_misses::.switch_cpus.data     53554894                       # number of demand (read+write) misses
system.cpu.dcache.demand_misses::total       59721878                       # number of demand (read+write) misses
system.cpu.dcache.overall_misses::.cpu.data      6166984                       # number of overall misses
system.cpu.dcache.overall_misses::.switch_cpus.data     53554894                       # number of overall misses
system.cpu.dcache.overall_misses::total      59721878                       # number of overall misses
system.cpu.dcache.demand_miss_latency::.switch_cpus.data 1867782947599                       # number of demand (read+write) miss cycles
system.cpu.dcache.demand_miss_latency::total 1867782947599                       # number of demand (read+write) miss cycles
system.cpu.dcache.overall_miss_latency::.switch_cpus.data 1867782947599                       # number of overall miss cycles
system.cpu.dcache.overall_miss_latency::total 1867782947599                       # number of overall miss cycles
system.cpu.dcache.demand_accesses::.cpu.data    639541872                       # number of demand (read+write) accesses
system.cpu.dcache.demand_accesses::.switch_cpus.data    983061168                       # number of demand (read+write) accesses
system.cpu.dcache.demand_accesses::total   1622603040                       # number of demand (read+write) accesses
system.cpu.dcache.overall_accesses::.cpu.data    639541872                       # number of overall (read+write) accesses
system.cpu.dcache.overall_accesses::.switch_cpus.data    983061168                       # number of overall (read+write) accesses
system.cpu.dcache.overall_accesses::total   1622603040                       # number of overall (read+write) accesses
system.cpu.dcache.demand_miss_rate::.cpu.data     0.009643                       # miss rate for demand accesses
system.cpu.dcache.demand_miss_rate::.switch_cpus.data     0.054478                       # miss rate for demand accesses
system.cpu.dcache.demand_miss_rate::total     0.036806                       # miss rate for demand accesses
system.cpu.dcache.overall_miss_rate::.cpu.data     0.009643                       # miss rate for overall accesses
system.cpu.dcache.overall_miss_rate::.switch_cpus.data     0.054478                       # miss rate for overall accesses
system.cpu.dcache.overall_miss_rate::total     0.036806                       # miss rate for overall accesses
system.cpu.dcache.demand_avg_miss_latency::.switch_cpus.data 34876.046017                       # average overall miss latency
system.cpu.dcache.demand_avg_miss_latency::total 31274.685428                       # average overall miss latency
system.cpu.dcache.overall_avg_miss_latency::.switch_cpus.data 34876.046017                       # average overall miss latency
system.cpu.dcache.overall_avg_miss_latency::total 31274.685428                       # average overall miss latency
system.cpu.dcache.blocked_cycles::no_mshrs        68393                       # number of cycles access was blocked
system.cpu.dcache.blocked_cycles::no_targets    112776400                       # number of cycles access was blocked
system.cpu.dcache.blocked::no_mshrs              4022                       # number of cycles access was blocked
system.cpu.dcache.blocked::no_targets         1572084                       # number of cycles access was blocked
system.cpu.dcache.avg_blocked_cycles::no_mshrs    17.004724                       # average number of cycles each access was blocked
system.cpu.dcache.avg_blocked_cycles::no_targets    71.736879                       # average number of cycles each access was blocked
system.cpu.dcache.writebacks::.writebacks      4598663                       # number of writebacks
system.cpu.dcache.writebacks::total           4598663                       # number of writebacks
system.cpu.dcache.demand_mshr_hits::.switch_cpus.data     44284239                       # number of demand (read+write) MSHR hits
system.cpu.dcache.demand_mshr_hits::total     44284239                       # number of demand (read+write) MSHR hits
system.cpu.dcache.overall_mshr_hits::.switch_cpus.data     44284239                       # number of overall MSHR hits
system.cpu.dcache.overall_mshr_hits::total     44284239                       # number of overall MSHR hits
system.cpu.dcache.demand_mshr_misses::.switch_cpus.data      9270655                       # number of demand (read+write) MSHR misses
system.cpu.dcache.demand_mshr_misses::total      9270655                       # number of demand (read+write) MSHR misses
system.cpu.dcache.overall_mshr_misses::.switch_cpus.data      9270655                       # number of overall MSHR misses
system.cpu.dcache.overall_mshr_misses::total      9270655                       # number of overall MSHR misses
system.cpu.dcache.demand_mshr_miss_latency::.switch_cpus.data 257059834731                       # number of demand (read+write) MSHR miss cycles
system.cpu.dcache.demand_mshr_miss_latency::total 257059834731                       # number of demand (read+write) MSHR miss cycles
system.cpu.dcache.overall_mshr_miss_latency::.switch_cpus.data 257059834731                       # number of overall MSHR miss cycles
system.cpu.dcache.overall_mshr_miss_latency::total 257059834731                       # number of overall MSHR miss cycles
system.cpu.dcache.demand_mshr_miss_rate::.switch_cpus.data     0.009430                       # mshr miss rate for demand accesses
system.cpu.dcache.demand_mshr_miss_rate::total     0.005713                       # mshr miss rate for demand accesses
system.cpu.dcache.overall_mshr_miss_rate::.switch_cpus.data     0.009430                       # mshr miss rate for overall accesses
system.cpu.dcache.overall_mshr_miss_rate::total     0.005713                       # mshr miss rate for overall accesses
system.cpu.dcache.demand_avg_mshr_miss_latency::.switch_cpus.data 27728.335779                       # average overall mshr miss latency
system.cpu.dcache.demand_avg_mshr_miss_latency::total 27728.335779                       # average overall mshr miss latency
system.cpu.dcache.overall_avg_mshr_miss_latency::.switch_cpus.data 27728.335779                       # average overall mshr miss latency
system.cpu.dcache.overall_avg_mshr_miss_latency::total 27728.335779                       # average overall mshr miss latency
system.cpu.dcache.replacements               15437557                       # number of replacements
system.cpu.dcache.ReadReq_hits::.cpu.data    453489005                       # number of ReadReq hits
system.cpu.dcache.ReadReq_hits::.switch_cpus.data    654196516                       # number of ReadReq hits
system.cpu.dcache.ReadReq_hits::total      1107685521                       # number of ReadReq hits
system.cpu.dcache.ReadReq_misses::.cpu.data      5828631                       # number of ReadReq misses
system.cpu.dcache.ReadReq_misses::.switch_cpus.data     53414521                       # number of ReadReq misses
system.cpu.dcache.ReadReq_misses::total      59243152                       # number of ReadReq misses
system.cpu.dcache.ReadReq_miss_latency::.switch_cpus.data 1860853065375                       # number of ReadReq miss cycles
system.cpu.dcache.ReadReq_miss_latency::total 1860853065375                       # number of ReadReq miss cycles
system.cpu.dcache.ReadReq_accesses::.cpu.data    459317636                       # number of ReadReq accesses(hits+misses)
system.cpu.dcache.ReadReq_accesses::.switch_cpus.data    707611037                       # number of ReadReq accesses(hits+misses)
system.cpu.dcache.ReadReq_accesses::total   1166928673                       # number of ReadReq accesses(hits+misses)
system.cpu.dcache.ReadReq_miss_rate::.cpu.data     0.012690                       # miss rate for ReadReq accesses
system.cpu.dcache.ReadReq_miss_rate::.switch_cpus.data     0.075486                       # miss rate for ReadReq accesses
system.cpu.dcache.ReadReq_miss_rate::total     0.050768                       # miss rate for ReadReq accesses
system.cpu.dcache.ReadReq_avg_miss_latency::.switch_cpus.data 34837.962235                       # average ReadReq miss latency
system.cpu.dcache.ReadReq_avg_miss_latency::total 31410.433148                       # average ReadReq miss latency
system.cpu.dcache.ReadReq_mshr_hits::.switch_cpus.data     44162207                       # number of ReadReq MSHR hits
system.cpu.dcache.ReadReq_mshr_hits::total     44162207                       # number of ReadReq MSHR hits
system.cpu.dcache.ReadReq_mshr_misses::.switch_cpus.data      9252314                       # number of ReadReq MSHR misses
system.cpu.dcache.ReadReq_mshr_misses::total      9252314                       # number of ReadReq MSHR misses
system.cpu.dcache.ReadReq_mshr_miss_latency::.switch_cpus.data 256793371314                       # number of ReadReq MSHR miss cycles
system.cpu.dcache.ReadReq_mshr_miss_latency::total 256793371314                       # number of ReadReq MSHR miss cycles
system.cpu.dcache.ReadReq_mshr_miss_rate::.switch_cpus.data     0.013075                       # mshr miss rate for ReadReq accesses
system.cpu.dcache.ReadReq_mshr_miss_rate::total     0.007929                       # mshr miss rate for ReadReq accesses
system.cpu.dcache.ReadReq_avg_mshr_miss_latency::.switch_cpus.data 27754.502421                       # average ReadReq mshr miss latency
system.cpu.dcache.ReadReq_avg_mshr_miss_latency::total 27754.502421                       # average ReadReq mshr miss latency
system.cpu.dcache.WriteReq_hits::.cpu.data    179885883                       # number of WriteReq hits
system.cpu.dcache.WriteReq_hits::.switch_cpus.data    275309758                       # number of WriteReq hits
system.cpu.dcache.WriteReq_hits::total      455195641                       # number of WriteReq hits
system.cpu.dcache.WriteReq_misses::.cpu.data       338353                       # number of WriteReq misses
system.cpu.dcache.WriteReq_misses::.switch_cpus.data       140373                       # number of WriteReq misses
system.cpu.dcache.WriteReq_misses::total       478726                       # number of WriteReq misses
system.cpu.dcache.WriteReq_miss_latency::.switch_cpus.data   6929882224                       # number of WriteReq miss cycles
system.cpu.dcache.WriteReq_miss_latency::total   6929882224                       # number of WriteReq miss cycles
system.cpu.dcache.WriteReq_accesses::.cpu.data    180224236                       # number of WriteReq accesses(hits+misses)
system.cpu.dcache.WriteReq_accesses::.switch_cpus.data    275450131                       # number of WriteReq accesses(hits+misses)
system.cpu.dcache.WriteReq_accesses::total    455674367                       # number of WriteReq accesses(hits+misses)
system.cpu.dcache.WriteReq_miss_rate::.cpu.data     0.001877                       # miss rate for WriteReq accesses
system.cpu.dcache.WriteReq_miss_rate::.switch_cpus.data     0.000510                       # miss rate for WriteReq accesses
system.cpu.dcache.WriteReq_miss_rate::total     0.001051                       # miss rate for WriteReq accesses
system.cpu.dcache.WriteReq_avg_miss_latency::.switch_cpus.data 49367.629273                       # average WriteReq miss latency
system.cpu.dcache.WriteReq_avg_miss_latency::total 14475.675489                       # average WriteReq miss latency
system.cpu.dcache.WriteReq_mshr_hits::.switch_cpus.data       122032                       # number of WriteReq MSHR hits
system.cpu.dcache.WriteReq_mshr_hits::total       122032                       # number of WriteReq MSHR hits
system.cpu.dcache.WriteReq_mshr_misses::.switch_cpus.data        18341                       # number of WriteReq MSHR misses
system.cpu.dcache.WriteReq_mshr_misses::total        18341                       # number of WriteReq MSHR misses
system.cpu.dcache.WriteReq_mshr_miss_latency::.switch_cpus.data    266463417                       # number of WriteReq MSHR miss cycles
system.cpu.dcache.WriteReq_mshr_miss_latency::total    266463417                       # number of WriteReq MSHR miss cycles
system.cpu.dcache.WriteReq_mshr_miss_rate::.switch_cpus.data     0.000067                       # mshr miss rate for WriteReq accesses
system.cpu.dcache.WriteReq_mshr_miss_rate::total     0.000040                       # mshr miss rate for WriteReq accesses
system.cpu.dcache.WriteReq_avg_mshr_miss_latency::.switch_cpus.data 14528.292732                       # average WriteReq mshr miss latency
system.cpu.dcache.WriteReq_avg_mshr_miss_latency::total 14528.292732                       # average WriteReq mshr miss latency
system.cpu.dcache.LoadLockedReq_hits::.cpu.data     13495618                       # number of LoadLockedReq hits
system.cpu.dcache.LoadLockedReq_hits::.switch_cpus.data     21082128                       # number of LoadLockedReq hits
system.cpu.dcache.LoadLockedReq_hits::total     34577746                       # number of LoadLockedReq hits
system.cpu.dcache.LoadLockedReq_misses::.cpu.data           73                       # number of LoadLockedReq misses
system.cpu.dcache.LoadLockedReq_misses::.switch_cpus.data          244                       # number of LoadLockedReq misses
system.cpu.dcache.LoadLockedReq_misses::total          317                       # number of LoadLockedReq misses
system.cpu.dcache.LoadLockedReq_miss_latency::.switch_cpus.data     15673362                       # number of LoadLockedReq miss cycles
system.cpu.dcache.LoadLockedReq_miss_latency::total     15673362                       # number of LoadLockedReq miss cycles
system.cpu.dcache.LoadLockedReq_accesses::.cpu.data     13495691                       # number of LoadLockedReq accesses(hits+misses)
system.cpu.dcache.LoadLockedReq_accesses::.switch_cpus.data     21082372                       # number of LoadLockedReq accesses(hits+misses)
system.cpu.dcache.LoadLockedReq_accesses::total     34578063                       # number of LoadLockedReq accesses(hits+misses)
system.cpu.dcache.LoadLockedReq_miss_rate::.cpu.data     0.000005                       # miss rate for LoadLockedReq accesses
system.cpu.dcache.LoadLockedReq_miss_rate::.switch_cpus.data     0.000012                       # miss rate for LoadLockedReq accesses
system.cpu.dcache.LoadLockedReq_miss_rate::total     0.000009                       # miss rate for LoadLockedReq accesses
system.cpu.dcache.LoadLockedReq_avg_miss_latency::.switch_cpus.data 64235.090164                       # average LoadLockedReq miss latency
system.cpu.dcache.LoadLockedReq_avg_miss_latency::total 49442.782334                       # average LoadLockedReq miss latency
system.cpu.dcache.LoadLockedReq_mshr_hits::.switch_cpus.data          143                       # number of LoadLockedReq MSHR hits
system.cpu.dcache.LoadLockedReq_mshr_hits::total          143                       # number of LoadLockedReq MSHR hits
system.cpu.dcache.LoadLockedReq_mshr_misses::.switch_cpus.data          101                       # number of LoadLockedReq MSHR misses
system.cpu.dcache.LoadLockedReq_mshr_misses::total          101                       # number of LoadLockedReq MSHR misses
system.cpu.dcache.LoadLockedReq_mshr_miss_latency::.switch_cpus.data      1032492                       # number of LoadLockedReq MSHR miss cycles
system.cpu.dcache.LoadLockedReq_mshr_miss_latency::total      1032492                       # number of LoadLockedReq MSHR miss cycles
system.cpu.dcache.LoadLockedReq_mshr_miss_rate::.switch_cpus.data     0.000005                       # mshr miss rate for LoadLockedReq accesses
system.cpu.dcache.LoadLockedReq_mshr_miss_rate::total     0.000003                       # mshr miss rate for LoadLockedReq accesses
system.cpu.dcache.LoadLockedReq_avg_mshr_miss_latency::.switch_cpus.data 10222.693069                       # average LoadLockedReq mshr miss latency
system.cpu.dcache.LoadLockedReq_avg_mshr_miss_latency::total 10222.693069                       # average LoadLockedReq mshr miss latency
system.cpu.dcache.StoreCondReq_hits::.cpu.data     13495691                       # number of StoreCondReq hits
system.cpu.dcache.StoreCondReq_hits::.switch_cpus.data     21082170                       # number of StoreCondReq hits
system.cpu.dcache.StoreCondReq_hits::total     34577861                       # number of StoreCondReq hits
system.cpu.dcache.StoreCondReq_accesses::.cpu.data     13495691                       # number of StoreCondReq accesses(hits+misses)
system.cpu.dcache.StoreCondReq_accesses::.switch_cpus.data     21082170                       # number of StoreCondReq accesses(hits+misses)
system.cpu.dcache.StoreCondReq_accesses::total     34577861                       # number of StoreCondReq accesses(hits+misses)
system.cpu.dcache.tags.pwrStateResidencyTicks::UNDEFINED 2000000000000                       # Cumulative time (in ticks) in various power states
system.cpu.dcache.tags.tagsinuse           255.999312                       # Cycle average of tags in use
system.cpu.dcache.tags.total_refs          1647474582                       # Total number of references to valid blocks.
system.cpu.dcache.tags.sampled_refs          15437813                       # Sample count of references to valid blocks.
system.cpu.dcache.tags.avg_refs            106.716838                       # Average number of references to valid blocks.
system.cpu.dcache.tags.warmup_cycle              1668                       # Cycle when the warmup percentage was hit.
system.cpu.dcache.tags.occ_blocks::.cpu.data   135.199148                       # Average occupied blocks per requestor
system.cpu.dcache.tags.occ_blocks::.switch_cpus.data   120.800164                       # Average occupied blocks per requestor
system.cpu.dcache.tags.occ_percent::.cpu.data     0.528122                       # Average percentage of cache occupancy
system.cpu.dcache.tags.occ_percent::.switch_cpus.data     0.471876                       # Average percentage of cache occupancy
system.cpu.dcache.tags.occ_percent::total     0.999997                       # Average percentage of cache occupancy
system.cpu.dcache.tags.occ_task_id_blocks::1024          256                       # Occupied blocks per task id
system.cpu.dcache.tags.age_task_id_blocks_1024::0           68                       # Occupied blocks per task id
system.cpu.dcache.tags.age_task_id_blocks_1024::1          130                       # Occupied blocks per task id
system.cpu.dcache.tags.age_task_id_blocks_1024::2           17                       # Occupied blocks per task id
system.cpu.dcache.tags.age_task_id_blocks_1024::3            1                       # Occupied blocks per task id
system.cpu.dcache.tags.age_task_id_blocks_1024::4           40                       # Occupied blocks per task id
system.cpu.dcache.tags.occ_task_id_percent::1024            1                       # Percentage of cache occupancy per task id
system.cpu.dcache.tags.tag_accesses       54151724661                       # Number of tag accesses
system.cpu.dcache.tags.data_accesses      54151724661                       # Number of data accesses

---------- End Simulation Statistics   ----------
