gem5 Simulator System.  http://gem5.org
gem5 is copyrighted software; use the --copyright option for details.

gem5 compiled Jan 22 2020 23:25:24
gem5 started Jan 22 2020 23:34:03
gem5 executing on node-0.yangzhou-qv63200.lambda-mpi-pg0.clemson.cloudlab.us, pid 22455
command line: build/ARM/gem5.fast --remote-gdb-port=0 --outdir=/users/yangzhou/gem5/sgx_nic/m5out/DerivO3CPU_acl-fw_4MB --stats-file=DerivO3CPU_acl-fw_4MB_stats.txt configs/example/se_nic.py --interp-dir /usr/aarch64-linux-gnu --redirects /lib=/usr/aarch64-linux-gnu/lib -c acl-fw --cpu-type=DerivO3CPU --cpu-clock=2.4GHz --asic-clock=0.56GHz --cacheline_size=128 --caches --l2cache --l2_size=4MB --l2_assoc=16 --mem-size=128GB --mem-type=DDR3_1600_8x8 --mem-channels=2 --mem-ranks=2 --fast-forward=2000000000 --rel-max-tick=5000000000000

['acl-fw']
{'acl-fw': [0]} 1 1
Setting the interpreter path to: /usr/aarch64-linux-gnu 
For dynamically linked applications you might still need to setup the --redirects so that libraries are found

Global frequency set at 1000000000000 ticks per second
Switch at instruction count:2000000000
Receiving port Simulate queue
Running 1 pipelines
trying to open file /users/yangzhou/ictf2010.dat
opening succeeds
number of rules in acls: 643
acl-fw packets processed: 65536
acl-fw packets processed: 131072
acl-fw packets processed: 196608
acl-fw packets processed: 262144
acl-fw packets processed: 327680
acl-fw packets processed: 393216
acl-fw packets processed: 458752
acl-fw packets processed: 524288
acl-fw packets processed: 589824
acl-fw packets processed: 655360
acl-fw packets processed: 720896
acl-fw packets processed: 786432
acl-fw packets processed: 851968
acl-fw packets processed: 917504
acl-fw packets processed: 983040
acl-fw packets processed: 1048576
acl-fw packets processed: 1114112
acl-fw packets processed: 1179648
acl-fw packets processed: 1245184
acl-fw packets processed: 1310720
acl-fw packets processed: 1376256
acl-fw packets processed: 1441792
acl-fw packets processed: 1507328
acl-fw packets processed: 1572864
acl-fw packets processed: 1638400
acl-fw packets processed: 1703936
acl-fw packets processed: 1769472
acl-fw packets processed: 1835008
Switched CPUS @ tick 967188758334
switching cpus
**** REAL SIMULATION ****
acl-fw packets processed: 1900544
acl-fw packets processed: 1966080
acl-fw packets processed: 2031616
acl-fw packets processed: 2097152
acl-fw packets processed: 2162688
acl-fw packets processed: 2228224
acl-fw packets processed: 2293760
acl-fw packets processed: 2359296
acl-fw packets processed: 2424832
acl-fw packets processed: 2490368
acl-fw packets processed: 2555904
acl-fw packets processed: 2621440
acl-fw packets processed: 2686976
acl-fw packets processed: 2752512
acl-fw packets processed: 2818048
acl-fw packets processed: 2883584
acl-fw packets processed: 2949120
acl-fw packets processed: 3014656
acl-fw packets processed: 3080192
acl-fw packets processed: 3145728
acl-fw packets processed: 3211264
acl-fw packets processed: 3276800
acl-fw packets processed: 3342336
acl-fw packets processed: 3407872
acl-fw packets processed: 3473408
acl-fw packets processed: 3538944
acl-fw packets processed: 3604480
acl-fw packets processed: 3670016
acl-fw packets processed: 3735552
acl-fw packets processed: 3801088
acl-fw packets processed: 3866624
acl-fw packets processed: 3932160
acl-fw packets processed: 3997696
acl-fw packets processed: 4063232
acl-fw packets processed: 4128768
acl-fw packets processed: 4194304
acl-fw packets processed: 4259840
acl-fw packets processed: 4325376
acl-fw packets processed: 4390912
acl-fw packets processed: 4456448
acl-fw packets processed: 4521984
acl-fw packets processed: 4587520
acl-fw packets processed: 4653056
acl-fw packets processed: 4718592
acl-fw packets processed: 4784128
acl-fw packets processed: 4849664
acl-fw packets processed: 4915200
acl-fw packets processed: 4980736
acl-fw packets processed: 5046272
acl-fw packets processed: 5111808
acl-fw packets processed: 5177344
acl-fw packets processed: 5242880
acl-fw packets processed: 5308416
acl-fw packets processed: 5373952
acl-fw packets processed: 5439488
acl-fw packets processed: 5505024
acl-fw packets processed: 5570560
acl-fw packets processed: 5636096
acl-fw packets processed: 5701632
acl-fw packets processed: 5767168
acl-fw packets processed: 5832704
acl-fw packets processed: 5898240
acl-fw packets processed: 5963776
acl-fw packets processed: 6029312
acl-fw packets processed: 6094848
acl-fw packets processed: 6160384
acl-fw packets processed: 6225920
acl-fw packets processed: 6291456
acl-fw packets processed: 6356992
acl-fw packets processed: 6422528
acl-fw packets processed: 6488064
acl-fw packets processed: 6553600
acl-fw packets processed: 6619136
acl-fw packets processed: 6684672
acl-fw packets processed: 6750208
acl-fw packets processed: 6815744
acl-fw packets processed: 6881280
acl-fw packets processed: 6946816
acl-fw packets processed: 7012352
acl-fw packets processed: 7077888
acl-fw packets processed: 7143424
acl-fw packets processed: 7208960
acl-fw packets processed: 7274496
acl-fw packets processed: 7340032
acl-fw packets processed: 7405568
acl-fw packets processed: 7471104
acl-fw packets processed: 7536640
acl-fw packets processed: 7602176
acl-fw packets processed: 7667712
acl-fw packets processed: 7733248
acl-fw packets processed: 7798784
acl-fw packets processed: 7864320
acl-fw packets processed: 7929856
acl-fw packets processed: 7995392
acl-fw packets processed: 8060928
acl-fw packets processed: 8126464
acl-fw packets processed: 8192000
acl-fw packets processed: 8257536
acl-fw packets processed: 8323072
acl-fw packets processed: 8388608
acl-fw packets processed: 8454144
acl-fw packets processed: 8519680
acl-fw packets processed: 8585216
acl-fw packets processed: 8650752
acl-fw packets processed: 8716288
acl-fw packets processed: 8781824
acl-fw packets processed: 8847360
acl-fw packets processed: 8912896
acl-fw packets processed: 8978432
acl-fw packets processed: 9043968
acl-fw packets processed: 9109504
acl-fw packets processed: 9175040
acl-fw packets processed: 9240576
acl-fw packets processed: 9306112
acl-fw packets processed: 9371648
acl-fw packets processed: 9437184
acl-fw packets processed: 9502720
acl-fw packets processed: 9568256
acl-fw packets processed: 9633792
acl-fw packets processed: 9699328
acl-fw packets processed: 9764864
acl-fw packets processed: 9830400
acl-fw packets processed: 9895936
acl-fw packets processed: 9961472
acl-fw packets processed: 10027008
acl-fw packets processed: 10092544
acl-fw packets processed: 10158080
acl-fw packets processed: 10223616
acl-fw packets processed: 10289152
acl-fw packets processed: 10354688
acl-fw packets processed: 10420224
acl-fw packets processed: 10485760
acl-fw packets processed: 10551296
acl-fw packets processed: 10616832
acl-fw packets processed: 10682368
acl-fw packets processed: 10747904
acl-fw packets processed: 10813440
acl-fw packets processed: 10878976
acl-fw packets processed: 10944512
acl-fw packets processed: 11010048
acl-fw packets processed: 11075584
acl-fw packets processed: 11141120
acl-fw packets processed: 11206656
acl-fw packets processed: 11272192
acl-fw packets processed: 11337728
acl-fw packets processed: 11403264
acl-fw packets processed: 11468800
acl-fw packets processed: 11534336
acl-fw packets processed: 11599872
acl-fw packets processed: 11665408
acl-fw packets processed: 11730944
acl-fw packets processed: 11796480
acl-fw packets processed: 11862016
acl-fw packets processed: 11927552
acl-fw packets processed: 11993088
acl-fw packets processed: 12058624
acl-fw packets processed: 12124160
acl-fw packets processed: 12189696
acl-fw packets processed: 12255232
acl-fw packets processed: 12320768
acl-fw packets processed: 12386304
acl-fw packets processed: 12451840
acl-fw packets processed: 12517376
acl-fw packets processed: 12582912
acl-fw packets processed: 12648448
acl-fw packets processed: 12713984
acl-fw packets processed: 12779520
acl-fw packets processed: 12845056
acl-fw packets processed: 12910592
acl-fw packets processed: 12976128
acl-fw packets processed: 13041664
acl-fw packets processed: 13107200
acl-fw packets processed: 13172736
acl-fw packets processed: 13238272
acl-fw packets processed: 13303808
acl-fw packets processed: 13369344
acl-fw packets processed: 13434880
acl-fw packets processed: 13500416
acl-fw packets processed: 13565952
acl-fw packets processed: 13631488
acl-fw packets processed: 13697024
acl-fw packets processed: 13762560
acl-fw packets processed: 13828096
acl-fw packets processed: 13893632
acl-fw packets processed: 13959168
acl-fw packets processed: 14024704
acl-fw packets processed: 14090240
acl-fw packets processed: 14155776
acl-fw packets processed: 14221312
acl-fw packets processed: 14286848
acl-fw packets processed: 14352384
acl-fw packets processed: 14417920
acl-fw packets processed: 14483456
acl-fw packets processed: 14548992
acl-fw packets processed: 14614528
acl-fw packets processed: 14680064
acl-fw packets processed: 14745600
acl-fw packets processed: 14811136
acl-fw packets processed: 14876672
acl-fw packets processed: 14942208
acl-fw packets processed: 15007744
acl-fw packets processed: 15073280
acl-fw packets processed: 15138816
acl-fw packets processed: 15204352
Exiting @ tick 3992586640266 because user interrupt received
