
---------- Begin Simulation Statistics ----------
sim_seconds                                  0.119302                       # Number of seconds simulated
sim_ticks                                119302271662                       # Number of ticks simulated
final_tick                               1177161092975                       # Number of ticks from beginning of simulation (restored from checkpoints and never reset)
sim_freq                                 1000000000000                       # Frequency of simulated ticks
host_inst_rate                                  95514                       # Simulator instruction rate (inst/s)
host_op_rate                                   123887                       # Simulator op (including micro ops) rate (op/s)
host_tick_rate                                3552506                       # Simulator tick rate (ticks/s)
host_mem_usage                               16906552                       # Number of bytes of host memory used
host_seconds                                 33582.57                       # Real time elapsed on the host
sim_insts                                  3207590462                       # Number of instructions simulated
sim_ops                                    4160438086                       # Number of ops (including micro ops) simulated
system.physmem.bytes_read::switch_cpus0.inst         1408                       # Number of bytes read from this memory
system.physmem.bytes_read::switch_cpus0.data      1914368                       # Number of bytes read from this memory
system.physmem.bytes_read::switch_cpus1.inst         1792                       # Number of bytes read from this memory
system.physmem.bytes_read::switch_cpus1.data      1169792                       # Number of bytes read from this memory
system.physmem.bytes_read::switch_cpus2.inst         1792                       # Number of bytes read from this memory
system.physmem.bytes_read::switch_cpus2.data      1655040                       # Number of bytes read from this memory
system.physmem.bytes_read::total              4744192                       # Number of bytes read from this memory
system.physmem.bytes_inst_read::switch_cpus0.inst         1408                       # Number of instructions bytes read from this memory
system.physmem.bytes_inst_read::switch_cpus1.inst         1792                       # Number of instructions bytes read from this memory
system.physmem.bytes_inst_read::switch_cpus2.inst         1792                       # Number of instructions bytes read from this memory
system.physmem.bytes_inst_read::total            4992                       # Number of instructions bytes read from this memory
system.physmem.bytes_written::writebacks      1573504                       # Number of bytes written to this memory
system.physmem.bytes_written::total           1573504                       # Number of bytes written to this memory
system.physmem.num_reads::switch_cpus0.inst           11                       # Number of read requests responded to by this memory
system.physmem.num_reads::switch_cpus0.data        14956                       # Number of read requests responded to by this memory
system.physmem.num_reads::switch_cpus1.inst           14                       # Number of read requests responded to by this memory
system.physmem.num_reads::switch_cpus1.data         9139                       # Number of read requests responded to by this memory
system.physmem.num_reads::switch_cpus2.inst           14                       # Number of read requests responded to by this memory
system.physmem.num_reads::switch_cpus2.data        12930                       # Number of read requests responded to by this memory
system.physmem.num_reads::total                 37064                       # Number of read requests responded to by this memory
system.physmem.num_writes::writebacks           12293                       # Number of write requests responded to by this memory
system.physmem.num_writes::functional               0                       # Number of write requests responded to by this memory
system.physmem.num_writes::interrupt                0                       # Number of write requests responded to by this memory
system.physmem.num_writes::switch_cpus0.dtb.walker            0                       # Number of write requests responded to by this memory
system.physmem.num_writes::switch_cpus0.itb.walker            0                       # Number of write requests responded to by this memory
system.physmem.num_writes::switch_cpus0.inst            0                       # Number of write requests responded to by this memory
system.physmem.num_writes::switch_cpus0.data            0                       # Number of write requests responded to by this memory
system.physmem.num_writes::switch_cpus1.dtb.walker            0                       # Number of write requests responded to by this memory
system.physmem.num_writes::switch_cpus1.itb.walker            0                       # Number of write requests responded to by this memory
system.physmem.num_writes::switch_cpus1.inst            0                       # Number of write requests responded to by this memory
system.physmem.num_writes::switch_cpus1.data            0                       # Number of write requests responded to by this memory
system.physmem.num_writes::switch_cpus2.dtb.walker            0                       # Number of write requests responded to by this memory
system.physmem.num_writes::switch_cpus2.itb.walker            0                       # Number of write requests responded to by this memory
system.physmem.num_writes::switch_cpus2.inst            0                       # Number of write requests responded to by this memory
system.physmem.num_writes::switch_cpus2.data            0                       # Number of write requests responded to by this memory
system.physmem.num_writes::cpu0.dtb.walker            0                       # Number of write requests responded to by this memory
system.physmem.num_writes::cpu0.itb.walker            0                       # Number of write requests responded to by this memory
system.physmem.num_writes::cpu0.inst                0                       # Number of write requests responded to by this memory
system.physmem.num_writes::cpu0.data                0                       # Number of write requests responded to by this memory
system.physmem.num_writes::cpu1.dtb.walker            0                       # Number of write requests responded to by this memory
system.physmem.num_writes::cpu1.itb.walker            0                       # Number of write requests responded to by this memory
system.physmem.num_writes::cpu1.inst                0                       # Number of write requests responded to by this memory
system.physmem.num_writes::cpu1.data                0                       # Number of write requests responded to by this memory
system.physmem.num_writes::cpu2.dtb.walker            0                       # Number of write requests responded to by this memory
system.physmem.num_writes::cpu2.itb.walker            0                       # Number of write requests responded to by this memory
system.physmem.num_writes::cpu2.inst                0                       # Number of write requests responded to by this memory
system.physmem.num_writes::cpu2.data                0                       # Number of write requests responded to by this memory
system.physmem.num_writes::total                12293                       # Number of write requests responded to by this memory
system.physmem.bw_read::switch_cpus0.inst        11802                       # Total read bandwidth from this memory (bytes/s)
system.physmem.bw_read::switch_cpus0.data     16046367                       # Total read bandwidth from this memory (bytes/s)
system.physmem.bw_read::switch_cpus1.inst        15021                       # Total read bandwidth from this memory (bytes/s)
system.physmem.bw_read::switch_cpus1.data      9805279                       # Total read bandwidth from this memory (bytes/s)
system.physmem.bw_read::switch_cpus2.inst        15021                       # Total read bandwidth from this memory (bytes/s)
system.physmem.bw_read::switch_cpus2.data     13872661                       # Total read bandwidth from this memory (bytes/s)
system.physmem.bw_read::total                39766150                       # Total read bandwidth from this memory (bytes/s)
system.physmem.bw_inst_read::switch_cpus0.inst        11802                       # Instruction read bandwidth from this memory (bytes/s)
system.physmem.bw_inst_read::switch_cpus1.inst        15021                       # Instruction read bandwidth from this memory (bytes/s)
system.physmem.bw_inst_read::switch_cpus2.inst        15021                       # Instruction read bandwidth from this memory (bytes/s)
system.physmem.bw_inst_read::total              41843                       # Instruction read bandwidth from this memory (bytes/s)
system.physmem.bw_write::writebacks          13189221                       # Write bandwidth from this memory (bytes/s)
system.physmem.bw_write::total               13189221                       # Write bandwidth from this memory (bytes/s)
system.physmem.bw_total::writebacks          13189221                       # Total bandwidth to/from this memory (bytes/s)
system.physmem.bw_total::switch_cpus0.inst        11802                       # Total bandwidth to/from this memory (bytes/s)
system.physmem.bw_total::switch_cpus0.data     16046367                       # Total bandwidth to/from this memory (bytes/s)
system.physmem.bw_total::switch_cpus1.inst        15021                       # Total bandwidth to/from this memory (bytes/s)
system.physmem.bw_total::switch_cpus1.data      9805279                       # Total bandwidth to/from this memory (bytes/s)
system.physmem.bw_total::switch_cpus2.inst        15021                       # Total bandwidth to/from this memory (bytes/s)
system.physmem.bw_total::switch_cpus2.data     13872661                       # Total bandwidth to/from this memory (bytes/s)
system.physmem.bw_total::total               52955371                       # Total bandwidth to/from this memory (bytes/s)
system.switch_cpus0.dtb.inst_hits                   0                       # ITB inst hits
system.switch_cpus0.dtb.inst_misses                 0                       # ITB inst misses
system.switch_cpus0.dtb.read_hits                   0                       # DTB read hits
system.switch_cpus0.dtb.read_misses                 0                       # DTB read misses
system.switch_cpus0.dtb.write_hits                  0                       # DTB write hits
system.switch_cpus0.dtb.write_misses                0                       # DTB write misses
system.switch_cpus0.dtb.flush_tlb                   0                       # Number of times complete TLB was flushed
system.switch_cpus0.dtb.flush_tlb_mva               0                       # Number of times TLB was flushed by MVA
system.switch_cpus0.dtb.flush_tlb_mva_asid            0                       # Number of times TLB was flushed by MVA & ASID
system.switch_cpus0.dtb.flush_tlb_asid              0                       # Number of times TLB was flushed by ASID
system.switch_cpus0.dtb.flush_entries               0                       # Number of entries that have been flushed from TLB
system.switch_cpus0.dtb.align_faults                0                       # Number of TLB faults due to alignment restrictions
system.switch_cpus0.dtb.prefetch_faults             0                       # Number of TLB faults due to prefetch
system.switch_cpus0.dtb.domain_faults               0                       # Number of TLB faults due to domain restrictions
system.switch_cpus0.dtb.perms_faults                0                       # Number of TLB faults due to permissions restrictions
system.switch_cpus0.dtb.read_accesses               0                       # DTB read accesses
system.switch_cpus0.dtb.write_accesses              0                       # DTB write accesses
system.switch_cpus0.dtb.inst_accesses               0                       # ITB inst accesses
system.switch_cpus0.dtb.hits                        0                       # DTB hits
system.switch_cpus0.dtb.misses                      0                       # DTB misses
system.switch_cpus0.dtb.accesses                    0                       # DTB accesses
system.switch_cpus0.itb.inst_hits                   0                       # ITB inst hits
system.switch_cpus0.itb.inst_misses                 0                       # ITB inst misses
system.switch_cpus0.itb.read_hits                   0                       # DTB read hits
system.switch_cpus0.itb.read_misses                 0                       # DTB read misses
system.switch_cpus0.itb.write_hits                  0                       # DTB write hits
system.switch_cpus0.itb.write_misses                0                       # DTB write misses
system.switch_cpus0.itb.flush_tlb                   0                       # Number of times complete TLB was flushed
system.switch_cpus0.itb.flush_tlb_mva               0                       # Number of times TLB was flushed by MVA
system.switch_cpus0.itb.flush_tlb_mva_asid            0                       # Number of times TLB was flushed by MVA & ASID
system.switch_cpus0.itb.flush_tlb_asid              0                       # Number of times TLB was flushed by ASID
system.switch_cpus0.itb.flush_entries               0                       # Number of entries that have been flushed from TLB
system.switch_cpus0.itb.align_faults                0                       # Number of TLB faults due to alignment restrictions
system.switch_cpus0.itb.prefetch_faults             0                       # Number of TLB faults due to prefetch
system.switch_cpus0.itb.domain_faults               0                       # Number of TLB faults due to domain restrictions
system.switch_cpus0.itb.perms_faults                0                       # Number of TLB faults due to permissions restrictions
system.switch_cpus0.itb.read_accesses               0                       # DTB read accesses
system.switch_cpus0.itb.write_accesses              0                       # DTB write accesses
system.switch_cpus0.itb.inst_accesses               0                       # ITB inst accesses
system.switch_cpus0.itb.hits                        0                       # DTB hits
system.switch_cpus0.itb.misses                      0                       # DTB misses
system.switch_cpus0.itb.accesses                    0                       # DTB accesses
system.cpu0.workload.num_syscalls                   0                       # Number of system calls
system.switch_cpus0.numCycles               143220015                       # number of cpu cycles simulated
system.switch_cpus0.numWorkItemsStarted             0                       # number of work items this cpu started
system.switch_cpus0.numWorkItemsCompleted            0                       # number of work items this cpu completed
system.switch_cpus0.BPredUnit.lookups        23176133                       # Number of BP lookups
system.switch_cpus0.BPredUnit.condPredicted     19087147                       # Number of conditional branches predicted
system.switch_cpus0.BPredUnit.condIncorrect      1930740                       # Number of conditional branches incorrect
system.switch_cpus0.BPredUnit.BTBLookups      9370488                       # Number of BTB lookups
system.switch_cpus0.BPredUnit.BTBHits         8667795                       # Number of BTB hits
system.switch_cpus0.BPredUnit.BTBCorrect            0                       # Number of correct BTB predictions (this stat may not work properly.
system.switch_cpus0.BPredUnit.usedRAS         2436806                       # Number of times the RAS was used to get a target.
system.switch_cpus0.BPredUnit.RASInCorrect        87675                       # Number of incorrect RAS predictions.
system.switch_cpus0.fetch.icacheStallCycles    104452150                       # Number of cycles fetch is stalled on an Icache miss
system.switch_cpus0.fetch.Insts             128059921                       # Number of instructions fetch has processed
system.switch_cpus0.fetch.Branches           23176133                       # Number of branches that fetch encountered
system.switch_cpus0.fetch.predictedBranches     11104601                       # Number of branches that fetch has predicted taken
system.switch_cpus0.fetch.Cycles             27191949                       # Number of cycles fetch has run and was not squashing or blocked
system.switch_cpus0.fetch.SquashCycles        6259098                       # Number of cycles fetch has spent squashing
system.switch_cpus0.fetch.BlockedCycles       4954072                       # Number of cycles fetch has spent blocked
system.switch_cpus0.fetch.CacheLines         12100758                       # Number of cache lines fetched
system.switch_cpus0.fetch.IcacheSquashes      1572385                       # Number of outstanding Icache misses that were squashed
system.switch_cpus0.fetch.rateDist::samples    140894712                       # Number of instructions fetched each cycle (Total)
system.switch_cpus0.fetch.rateDist::mean     1.107151                       # Number of instructions fetched each cycle (Total)
system.switch_cpus0.fetch.rateDist::stdev     2.548884                       # Number of instructions fetched each cycle (Total)
system.switch_cpus0.fetch.rateDist::underflows            0      0.00%      0.00% # Number of instructions fetched each cycle (Total)
system.switch_cpus0.fetch.rateDist::0       113702763     80.70%     80.70% # Number of instructions fetched each cycle (Total)
system.switch_cpus0.fetch.rateDist::1         2782997      1.98%     82.68% # Number of instructions fetched each cycle (Total)
system.switch_cpus0.fetch.rateDist::2         2364786      1.68%     84.35% # Number of instructions fetched each cycle (Total)
system.switch_cpus0.fetch.rateDist::3         2380799      1.69%     86.04% # Number of instructions fetched each cycle (Total)
system.switch_cpus0.fetch.rateDist::4         2267428      1.61%     87.65% # Number of instructions fetched each cycle (Total)
system.switch_cpus0.fetch.rateDist::5         1122403      0.80%     88.45% # Number of instructions fetched each cycle (Total)
system.switch_cpus0.fetch.rateDist::6          777844      0.55%     89.00% # Number of instructions fetched each cycle (Total)
system.switch_cpus0.fetch.rateDist::7         1977506      1.40%     90.41% # Number of instructions fetched each cycle (Total)
system.switch_cpus0.fetch.rateDist::8        13518186      9.59%    100.00% # Number of instructions fetched each cycle (Total)
system.switch_cpus0.fetch.rateDist::overflows            0      0.00%    100.00% # Number of instructions fetched each cycle (Total)
system.switch_cpus0.fetch.rateDist::min_value            0                       # Number of instructions fetched each cycle (Total)
system.switch_cpus0.fetch.rateDist::max_value            8                       # Number of instructions fetched each cycle (Total)
system.switch_cpus0.fetch.rateDist::total    140894712                       # Number of instructions fetched each cycle (Total)
system.switch_cpus0.fetch.branchRate         0.161822                       # Number of branch fetches per cycle
system.switch_cpus0.fetch.rate               0.894148                       # Number of inst fetches per cycle
system.switch_cpus0.decode.IdleCycles       103278403                       # Number of cycles decode is idle
system.switch_cpus0.decode.BlockedCycles      6373080                       # Number of cycles decode is blocked
system.switch_cpus0.decode.RunCycles         26843280                       # Number of cycles decode is running
system.switch_cpus0.decode.UnblockCycles       109863                       # Number of cycles decode is unblocking
system.switch_cpus0.decode.SquashCycles       4290077                       # Number of cycles decode is squashing
system.switch_cpus0.decode.BranchResolved      3729629                       # Number of times decode resolved a branch
system.switch_cpus0.decode.BranchMispred         6465                       # Number of times decode detected a branch misprediction
system.switch_cpus0.decode.DecodedInsts     154462872                       # Number of instructions handled by decode
system.switch_cpus0.decode.SquashedInsts        51186                       # Number of squashed instructions handled by decode
system.switch_cpus0.rename.SquashCycles       4290077                       # Number of cycles rename is squashing
system.switch_cpus0.rename.IdleCycles       103793910                       # Number of cycles rename is idle
system.switch_cpus0.rename.BlockCycles        3872383                       # Number of cycles rename is blocking
system.switch_cpus0.rename.serializeStallCycles      1337972                       # count of cycles rename stalled for serializing inst
system.switch_cpus0.rename.RunCycles         26426956                       # Number of cycles rename is running
system.switch_cpus0.rename.UnblockCycles      1173406                       # Number of cycles rename is unblocking
system.switch_cpus0.rename.RenamedInsts     153013697                       # Number of instructions processed by rename
system.switch_cpus0.rename.ROBFullEvents         1838                       # Number of times rename has blocked due to ROB full
system.switch_cpus0.rename.IQFullEvents        400100                       # Number of times rename has blocked due to IQ full
system.switch_cpus0.rename.LSQFullEvents       625177                       # Number of times rename has blocked due to LSQ full
system.switch_cpus0.rename.FullRegisterEvents        21483                       # Number of times there has been no free registers
system.switch_cpus0.rename.RenamedOperands    214085029                       # Number of destination operands rename has renamed
system.switch_cpus0.rename.RenameLookups    713203628                       # Number of register rename lookups that rename has made
system.switch_cpus0.rename.int_rename_lookups    713203628                       # Number of integer rename lookups
system.switch_cpus0.rename.CommittedMaps    168259218                       # Number of HB maps that are committed
system.switch_cpus0.rename.UndoneMaps        45825804                       # Number of HB maps that are undone due to squashing
system.switch_cpus0.rename.serializingInsts        33344                       # count of serializing insts renamed
system.switch_cpus0.rename.tempSerializingInsts        17322                       # count of temporary serializing insts renamed
system.switch_cpus0.rename.skidInsts          3811310                       # count of insts added to the skid buffer
system.switch_cpus0.memDep0.insertedLoads     15186828                       # Number of loads inserted to the mem dependence unit.
system.switch_cpus0.memDep0.insertedStores      7897782                       # Number of stores inserted to the mem dependence unit.
system.switch_cpus0.memDep0.conflictingLoads       310083                       # Number of conflicting loads.
system.switch_cpus0.memDep0.conflictingStores      1693501                       # Number of conflicting stores.
system.switch_cpus0.iq.iqInstsAdded         149144006                       # Number of instructions added to the IQ (excludes non-spec)
system.switch_cpus0.iq.iqNonSpecInstsAdded        33344                       # Number of non-speculative instructions added to the IQ
system.switch_cpus0.iq.iqInstsIssued        139210380                       # Number of instructions issued
system.switch_cpus0.iq.iqSquashedInstsIssued       106835                       # Number of squashed instructions issued
system.switch_cpus0.iq.iqSquashedInstsExamined     25191056                       # Number of squashed instructions iterated over during squash; mainly for profiling
system.switch_cpus0.iq.iqSquashedOperandsExamined     57112987                       # Number of squashed operands that are examined and possibly removed from graph
system.switch_cpus0.iq.iqSquashedNonSpecRemoved         1300                       # Number of squashed non-spec instructions that were removed
system.switch_cpus0.iq.issued_per_cycle::samples    140894712                       # Number of insts issued each cycle
system.switch_cpus0.iq.issued_per_cycle::mean     0.988045                       # Number of insts issued each cycle
system.switch_cpus0.iq.issued_per_cycle::stdev     1.584417                       # Number of insts issued each cycle
system.switch_cpus0.iq.issued_per_cycle::underflows            0      0.00%      0.00% # Number of insts issued each cycle
system.switch_cpus0.iq.issued_per_cycle::0     83508450     59.27%     59.27% # Number of insts issued each cycle
system.switch_cpus0.iq.issued_per_cycle::1     23723241     16.84%     76.11% # Number of insts issued each cycle
system.switch_cpus0.iq.issued_per_cycle::2     11963773      8.49%     84.60% # Number of insts issued each cycle
system.switch_cpus0.iq.issued_per_cycle::3      7811872      5.54%     90.14% # Number of insts issued each cycle
system.switch_cpus0.iq.issued_per_cycle::4      6902431      4.90%     95.04% # Number of insts issued each cycle
system.switch_cpus0.iq.issued_per_cycle::5      2706560      1.92%     96.96% # Number of insts issued each cycle
system.switch_cpus0.iq.issued_per_cycle::6      3062471      2.17%     99.14% # Number of insts issued each cycle
system.switch_cpus0.iq.issued_per_cycle::7      1120685      0.80%     99.93% # Number of insts issued each cycle
system.switch_cpus0.iq.issued_per_cycle::8        95229      0.07%    100.00% # Number of insts issued each cycle
system.switch_cpus0.iq.issued_per_cycle::overflows            0      0.00%    100.00% # Number of insts issued each cycle
system.switch_cpus0.iq.issued_per_cycle::min_value            0                       # Number of insts issued each cycle
system.switch_cpus0.iq.issued_per_cycle::max_value            8                       # Number of insts issued each cycle
system.switch_cpus0.iq.issued_per_cycle::total    140894712                       # Number of insts issued each cycle
system.switch_cpus0.iq.fu_full::No_OpClass            0      0.00%      0.00% # attempts to use FU when none available
system.switch_cpus0.iq.fu_full::IntAlu         976760     74.80%     74.80% # attempts to use FU when none available
system.switch_cpus0.iq.fu_full::IntMult             0      0.00%     74.80% # attempts to use FU when none available
system.switch_cpus0.iq.fu_full::IntDiv              0      0.00%     74.80% # attempts to use FU when none available
system.switch_cpus0.iq.fu_full::FloatAdd            0      0.00%     74.80% # attempts to use FU when none available
system.switch_cpus0.iq.fu_full::FloatCmp            0      0.00%     74.80% # attempts to use FU when none available
system.switch_cpus0.iq.fu_full::FloatCvt            0      0.00%     74.80% # attempts to use FU when none available
system.switch_cpus0.iq.fu_full::FloatMult            0      0.00%     74.80% # attempts to use FU when none available
system.switch_cpus0.iq.fu_full::FloatDiv            0      0.00%     74.80% # attempts to use FU when none available
system.switch_cpus0.iq.fu_full::FloatSqrt            0      0.00%     74.80% # attempts to use FU when none available
system.switch_cpus0.iq.fu_full::SimdAdd             0      0.00%     74.80% # attempts to use FU when none available
system.switch_cpus0.iq.fu_full::SimdAddAcc            0      0.00%     74.80% # attempts to use FU when none available
system.switch_cpus0.iq.fu_full::SimdAlu             0      0.00%     74.80% # attempts to use FU when none available
system.switch_cpus0.iq.fu_full::SimdCmp             0      0.00%     74.80% # attempts to use FU when none available
system.switch_cpus0.iq.fu_full::SimdCvt             0      0.00%     74.80% # attempts to use FU when none available
system.switch_cpus0.iq.fu_full::SimdMisc            0      0.00%     74.80% # attempts to use FU when none available
system.switch_cpus0.iq.fu_full::SimdMult            0      0.00%     74.80% # attempts to use FU when none available
system.switch_cpus0.iq.fu_full::SimdMultAcc            0      0.00%     74.80% # attempts to use FU when none available
system.switch_cpus0.iq.fu_full::SimdShift            0      0.00%     74.80% # attempts to use FU when none available
system.switch_cpus0.iq.fu_full::SimdShiftAcc            0      0.00%     74.80% # attempts to use FU when none available
system.switch_cpus0.iq.fu_full::SimdSqrt            0      0.00%     74.80% # attempts to use FU when none available
system.switch_cpus0.iq.fu_full::SimdFloatAdd            0      0.00%     74.80% # attempts to use FU when none available
system.switch_cpus0.iq.fu_full::SimdFloatAlu            0      0.00%     74.80% # attempts to use FU when none available
system.switch_cpus0.iq.fu_full::SimdFloatCmp            0      0.00%     74.80% # attempts to use FU when none available
system.switch_cpus0.iq.fu_full::SimdFloatCvt            0      0.00%     74.80% # attempts to use FU when none available
system.switch_cpus0.iq.fu_full::SimdFloatDiv            0      0.00%     74.80% # attempts to use FU when none available
system.switch_cpus0.iq.fu_full::SimdFloatMisc            0      0.00%     74.80% # attempts to use FU when none available
system.switch_cpus0.iq.fu_full::SimdFloatMult            0      0.00%     74.80% # attempts to use FU when none available
system.switch_cpus0.iq.fu_full::SimdFloatMultAcc            0      0.00%     74.80% # attempts to use FU when none available
system.switch_cpus0.iq.fu_full::SimdFloatSqrt            0      0.00%     74.80% # attempts to use FU when none available
system.switch_cpus0.iq.fu_full::MemRead        156652     12.00%     86.79% # attempts to use FU when none available
system.switch_cpus0.iq.fu_full::MemWrite       172495     13.21%    100.00% # attempts to use FU when none available
system.switch_cpus0.iq.fu_full::IprAccess            0      0.00%    100.00% # attempts to use FU when none available
system.switch_cpus0.iq.fu_full::InstPrefetch            0      0.00%    100.00% # attempts to use FU when none available
system.switch_cpus0.iq.FU_type_0::No_OpClass            0      0.00%      0.00% # Type of FU issued
system.switch_cpus0.iq.FU_type_0::IntAlu    114977065     82.59%     82.59% # Type of FU issued
system.switch_cpus0.iq.FU_type_0::IntMult      2013901      1.45%     84.04% # Type of FU issued
system.switch_cpus0.iq.FU_type_0::IntDiv            0      0.00%     84.04% # Type of FU issued
system.switch_cpus0.iq.FU_type_0::FloatAdd            0      0.00%     84.04% # Type of FU issued
system.switch_cpus0.iq.FU_type_0::FloatCmp            0      0.00%     84.04% # Type of FU issued
system.switch_cpus0.iq.FU_type_0::FloatCvt            0      0.00%     84.04% # Type of FU issued
system.switch_cpus0.iq.FU_type_0::FloatMult            0      0.00%     84.04% # Type of FU issued
system.switch_cpus0.iq.FU_type_0::FloatDiv            0      0.00%     84.04% # Type of FU issued
system.switch_cpus0.iq.FU_type_0::FloatSqrt            0      0.00%     84.04% # Type of FU issued
system.switch_cpus0.iq.FU_type_0::SimdAdd            0      0.00%     84.04% # Type of FU issued
system.switch_cpus0.iq.FU_type_0::SimdAddAcc            0      0.00%     84.04% # Type of FU issued
system.switch_cpus0.iq.FU_type_0::SimdAlu            0      0.00%     84.04% # Type of FU issued
system.switch_cpus0.iq.FU_type_0::SimdCmp            0      0.00%     84.04% # Type of FU issued
system.switch_cpus0.iq.FU_type_0::SimdCvt            0      0.00%     84.04% # Type of FU issued
system.switch_cpus0.iq.FU_type_0::SimdMisc            0      0.00%     84.04% # Type of FU issued
system.switch_cpus0.iq.FU_type_0::SimdMult            0      0.00%     84.04% # Type of FU issued
system.switch_cpus0.iq.FU_type_0::SimdMultAcc            0      0.00%     84.04% # Type of FU issued
system.switch_cpus0.iq.FU_type_0::SimdShift            0      0.00%     84.04% # Type of FU issued
system.switch_cpus0.iq.FU_type_0::SimdShiftAcc            0      0.00%     84.04% # Type of FU issued
system.switch_cpus0.iq.FU_type_0::SimdSqrt            0      0.00%     84.04% # Type of FU issued
system.switch_cpus0.iq.FU_type_0::SimdFloatAdd            0      0.00%     84.04% # Type of FU issued
system.switch_cpus0.iq.FU_type_0::SimdFloatAlu            0      0.00%     84.04% # Type of FU issued
system.switch_cpus0.iq.FU_type_0::SimdFloatCmp            0      0.00%     84.04% # Type of FU issued
system.switch_cpus0.iq.FU_type_0::SimdFloatCvt            0      0.00%     84.04% # Type of FU issued
system.switch_cpus0.iq.FU_type_0::SimdFloatDiv            0      0.00%     84.04% # Type of FU issued
system.switch_cpus0.iq.FU_type_0::SimdFloatMisc        16022      0.01%     84.05% # Type of FU issued
system.switch_cpus0.iq.FU_type_0::SimdFloatMult            0      0.00%     84.05% # Type of FU issued
system.switch_cpus0.iq.FU_type_0::SimdFloatMultAcc            0      0.00%     84.05% # Type of FU issued
system.switch_cpus0.iq.FU_type_0::SimdFloatSqrt            0      0.00%     84.05% # Type of FU issued
system.switch_cpus0.iq.FU_type_0::MemRead     14359945     10.32%     94.37% # Type of FU issued
system.switch_cpus0.iq.FU_type_0::MemWrite      7843447      5.63%    100.00% # Type of FU issued
system.switch_cpus0.iq.FU_type_0::IprAccess            0      0.00%    100.00% # Type of FU issued
system.switch_cpus0.iq.FU_type_0::InstPrefetch            0      0.00%    100.00% # Type of FU issued
system.switch_cpus0.iq.FU_type_0::total     139210380                       # Type of FU issued
system.switch_cpus0.iq.rate                  0.972004                       # Inst issue rate
system.switch_cpus0.iq.fu_busy_cnt            1305907                       # FU busy when requested
system.switch_cpus0.iq.fu_busy_rate          0.009381                       # FU busy rate (busy events/executed inst)
system.switch_cpus0.iq.int_inst_queue_reads    420728214                       # Number of integer instruction queue reads
system.switch_cpus0.iq.int_inst_queue_writes    174369074                       # Number of integer instruction queue writes
system.switch_cpus0.iq.int_inst_queue_wakeup_accesses    135102981                       # Number of integer instruction queue wakeup accesses
system.switch_cpus0.iq.fp_inst_queue_reads            0                       # Number of floating instruction queue reads
system.switch_cpus0.iq.fp_inst_queue_writes            0                       # Number of floating instruction queue writes
system.switch_cpus0.iq.fp_inst_queue_wakeup_accesses            0                       # Number of floating instruction queue wakeup accesses
system.switch_cpus0.iq.int_alu_accesses     140516287                       # Number of integer alu accesses
system.switch_cpus0.iq.fp_alu_accesses              0                       # Number of floating point alu accesses
system.switch_cpus0.iew.lsq.thread0.forwLoads       202376                       # Number of loads that had data forwarded from stores
system.switch_cpus0.iew.lsq.thread0.invAddrLoads            0                       # Number of loads ignored due to an invalid address
system.switch_cpus0.iew.lsq.thread0.squashedLoads      2974699                       # Number of loads squashed
system.switch_cpus0.iew.lsq.thread0.ignoredResponses         1233                       # Number of memory responses ignored because the instruction is squashed
system.switch_cpus0.iew.lsq.thread0.memOrderViolation          678                       # Number of memory ordering violations
system.switch_cpus0.iew.lsq.thread0.squashedStores       156112                       # Number of stores squashed
system.switch_cpus0.iew.lsq.thread0.invAddrSwpfs            0                       # Number of software prefetches ignored due to an invalid address
system.switch_cpus0.iew.lsq.thread0.blockedLoads            0                       # Number of blocked loads due to partial load-store forwarding
system.switch_cpus0.iew.lsq.thread0.rescheduledLoads          597                       # Number of loads that were rescheduled
system.switch_cpus0.iew.lsq.thread0.cacheBlocked            0                       # Number of times an access to memory failed due to the cache being blocked
system.switch_cpus0.iew.iewIdleCycles               0                       # Number of cycles IEW is idle
system.switch_cpus0.iew.iewSquashCycles       4290077                       # Number of cycles IEW is squashing
system.switch_cpus0.iew.iewBlockCycles        3188576                       # Number of cycles IEW is blocking
system.switch_cpus0.iew.iewUnblockCycles       250804                       # Number of cycles IEW is unblocking
system.switch_cpus0.iew.iewDispatchedInsts    149177350                       # Number of instructions dispatched to IQ
system.switch_cpus0.iew.iewDispSquashedInsts      1165624                       # Number of squashed instructions skipped by dispatch
system.switch_cpus0.iew.iewDispLoadInsts     15186828                       # Number of dispatched load instructions
system.switch_cpus0.iew.iewDispStoreInsts      7897782                       # Number of dispatched store instructions
system.switch_cpus0.iew.iewDispNonSpecInsts        17322                       # Number of dispatched non-speculative instructions
system.switch_cpus0.iew.iewIQFullEvents        200432                       # Number of times the IQ has become full, causing a stall
system.switch_cpus0.iew.iewLSQFullEvents        13154                       # Number of times the LSQ has become full, causing a stall
system.switch_cpus0.iew.memOrderViolationEvents          678                       # Number of memory order violations
system.switch_cpus0.iew.predictedTakenIncorrect      1147434                       # Number of branches that were predicted taken incorrectly
system.switch_cpus0.iew.predictedNotTakenIncorrect      1084919                       # Number of branches that were predicted not taken incorrectly
system.switch_cpus0.iew.branchMispredicts      2232353                       # Number of branch mispredicts detected at execute
system.switch_cpus0.iew.iewExecutedInsts    136841388                       # Number of executed instructions
system.switch_cpus0.iew.iewExecLoadInsts     14112095                       # Number of load instructions executed
system.switch_cpus0.iew.iewExecSquashedInsts      2368992                       # Number of squashed instructions skipped in execute
system.switch_cpus0.iew.exec_swp                    0                       # number of swp insts executed
system.switch_cpus0.iew.exec_nop                    0                       # number of nop insts executed
system.switch_cpus0.iew.exec_refs            21953937                       # number of memory reference insts executed
system.switch_cpus0.iew.exec_branches        19294404                       # Number of branches executed
system.switch_cpus0.iew.exec_stores           7841842                       # Number of stores executed
system.switch_cpus0.iew.exec_rate            0.955463                       # Inst execution rate
system.switch_cpus0.iew.wb_sent             135109411                       # cumulative count of insts sent to commit
system.switch_cpus0.iew.wb_count            135102981                       # cumulative count of insts written-back
system.switch_cpus0.iew.wb_producers         81541299                       # num instructions producing a value
system.switch_cpus0.iew.wb_consumers        221175016                       # num instructions consuming a value
system.switch_cpus0.iew.wb_penalized                0                       # number of instrctions required to write to 'other' IQ
system.switch_cpus0.iew.wb_rate              0.943325                       # insts written-back per cycle
system.switch_cpus0.iew.wb_fanout            0.368673                       # average fanout of values written-back
system.switch_cpus0.iew.wb_penalized_rate            0                       # fraction of instructions written-back that wrote to 'other' IQ
system.switch_cpus0.commit.commitCommittedInsts    100000000                       # The number of committed instructions
system.switch_cpus0.commit.commitCommittedOps    122421916                       # The number of committed instructions
system.switch_cpus0.commit.commitSquashedInsts     26763252                       # The number of squashed insts skipped by commit
system.switch_cpus0.commit.commitNonSpecStalls        32044                       # The number of times commit has been forced to stall to communicate backwards
system.switch_cpus0.commit.branchMispredicts      1955565                       # The number of times a branch was mispredicted
system.switch_cpus0.commit.committed_per_cycle::samples    136604635                       # Number of insts commited each cycle
system.switch_cpus0.commit.committed_per_cycle::mean     0.896177                       # Number of insts commited each cycle
system.switch_cpus0.commit.committed_per_cycle::stdev     1.712203                       # Number of insts commited each cycle
system.switch_cpus0.commit.committed_per_cycle::underflows            0      0.00%      0.00% # Number of insts commited each cycle
system.switch_cpus0.commit.committed_per_cycle::0     87508757     64.06%     64.06% # Number of insts commited each cycle
system.switch_cpus0.commit.committed_per_cycle::1     22500110     16.47%     80.53% # Number of insts commited each cycle
system.switch_cpus0.commit.committed_per_cycle::2     10810605      7.91%     88.44% # Number of insts commited each cycle
system.switch_cpus0.commit.committed_per_cycle::3      4819542      3.53%     91.97% # Number of insts commited each cycle
system.switch_cpus0.commit.committed_per_cycle::4      3765223      2.76%     94.73% # Number of insts commited each cycle
system.switch_cpus0.commit.committed_per_cycle::5      1534854      1.12%     95.85% # Number of insts commited each cycle
system.switch_cpus0.commit.committed_per_cycle::6      1561194      1.14%     97.00% # Number of insts commited each cycle
system.switch_cpus0.commit.committed_per_cycle::7      1095156      0.80%     97.80% # Number of insts commited each cycle
system.switch_cpus0.commit.committed_per_cycle::8      3009194      2.20%    100.00% # Number of insts commited each cycle
system.switch_cpus0.commit.committed_per_cycle::overflows            0      0.00%    100.00% # Number of insts commited each cycle
system.switch_cpus0.commit.committed_per_cycle::min_value            0                       # Number of insts commited each cycle
system.switch_cpus0.commit.committed_per_cycle::max_value            8                       # Number of insts commited each cycle
system.switch_cpus0.commit.committed_per_cycle::total    136604635                       # Number of insts commited each cycle
system.switch_cpus0.commit.committedInsts    100000000                       # Number of instructions committed
system.switch_cpus0.commit.committedOps     122421916                       # Number of ops (including micro ops) committed
system.switch_cpus0.commit.swp_count                0                       # Number of s/w prefetches committed
system.switch_cpus0.commit.refs              19953796                       # Number of memory references committed
system.switch_cpus0.commit.loads             12212126                       # Number of loads committed
system.switch_cpus0.commit.membars              16022                       # Number of memory barriers committed
system.switch_cpus0.commit.branches          17573934                       # Number of branches committed
system.switch_cpus0.commit.fp_insts                 0                       # Number of committed floating point instructions.
system.switch_cpus0.commit.int_insts        110146122                       # Number of committed integer instructions.
system.switch_cpus0.commit.function_calls      2413416                       # Number of function calls committed.
system.switch_cpus0.commit.bw_lim_events      3009194                       # number cycles where commit BW limit reached
system.switch_cpus0.commit.bw_limited               0                       # number of insts not committed due to BW limits
system.switch_cpus0.rob.rob_reads           282780609                       # The number of ROB reads
system.switch_cpus0.rob.rob_writes          302660682                       # The number of ROB writes
system.switch_cpus0.timesIdled                  56164                       # Number of times that the entire CPU went into an idle state and unscheduled itself
system.switch_cpus0.idleCycles                2325303                       # Total number of cycles that the CPU has spent unscheduled due to idling
system.switch_cpus0.committedInsts          100000000                       # Number of Instructions Simulated
system.switch_cpus0.committedOps            122421916                       # Number of Ops (including micro ops) Simulated
system.switch_cpus0.committedInsts_total    100000000                       # Number of Instructions Simulated
system.switch_cpus0.cpi                      1.432200                       # CPI: Cycles Per Instruction
system.switch_cpus0.cpi_total                1.432200                       # CPI: Total CPI of All Threads
system.switch_cpus0.ipc                      0.698226                       # IPC: Instructions Per Cycle
system.switch_cpus0.ipc_total                0.698226                       # IPC: Total IPC of All Threads
system.switch_cpus0.int_regfile_reads       618385562                       # number of integer regfile reads
system.switch_cpus0.int_regfile_writes      186428598                       # number of integer regfile writes
system.switch_cpus0.misc_regfile_reads      145834795                       # number of misc regfile reads
system.switch_cpus0.misc_regfile_writes         32044                       # number of misc regfile writes
system.switch_cpus1.dtb.inst_hits                   0                       # ITB inst hits
system.switch_cpus1.dtb.inst_misses                 0                       # ITB inst misses
system.switch_cpus1.dtb.read_hits                   0                       # DTB read hits
system.switch_cpus1.dtb.read_misses                 0                       # DTB read misses
system.switch_cpus1.dtb.write_hits                  0                       # DTB write hits
system.switch_cpus1.dtb.write_misses                0                       # DTB write misses
system.switch_cpus1.dtb.flush_tlb                   0                       # Number of times complete TLB was flushed
system.switch_cpus1.dtb.flush_tlb_mva               0                       # Number of times TLB was flushed by MVA
system.switch_cpus1.dtb.flush_tlb_mva_asid            0                       # Number of times TLB was flushed by MVA & ASID
system.switch_cpus1.dtb.flush_tlb_asid              0                       # Number of times TLB was flushed by ASID
system.switch_cpus1.dtb.flush_entries               0                       # Number of entries that have been flushed from TLB
system.switch_cpus1.dtb.align_faults                0                       # Number of TLB faults due to alignment restrictions
system.switch_cpus1.dtb.prefetch_faults             0                       # Number of TLB faults due to prefetch
system.switch_cpus1.dtb.domain_faults               0                       # Number of TLB faults due to domain restrictions
system.switch_cpus1.dtb.perms_faults                0                       # Number of TLB faults due to permissions restrictions
system.switch_cpus1.dtb.read_accesses               0                       # DTB read accesses
system.switch_cpus1.dtb.write_accesses              0                       # DTB write accesses
system.switch_cpus1.dtb.inst_accesses               0                       # ITB inst accesses
system.switch_cpus1.dtb.hits                        0                       # DTB hits
system.switch_cpus1.dtb.misses                      0                       # DTB misses
system.switch_cpus1.dtb.accesses                    0                       # DTB accesses
system.switch_cpus1.itb.inst_hits                   0                       # ITB inst hits
system.switch_cpus1.itb.inst_misses                 0                       # ITB inst misses
system.switch_cpus1.itb.read_hits                   0                       # DTB read hits
system.switch_cpus1.itb.read_misses                 0                       # DTB read misses
system.switch_cpus1.itb.write_hits                  0                       # DTB write hits
system.switch_cpus1.itb.write_misses                0                       # DTB write misses
system.switch_cpus1.itb.flush_tlb                   0                       # Number of times complete TLB was flushed
system.switch_cpus1.itb.flush_tlb_mva               0                       # Number of times TLB was flushed by MVA
system.switch_cpus1.itb.flush_tlb_mva_asid            0                       # Number of times TLB was flushed by MVA & ASID
system.switch_cpus1.itb.flush_tlb_asid              0                       # Number of times TLB was flushed by ASID
system.switch_cpus1.itb.flush_entries               0                       # Number of entries that have been flushed from TLB
system.switch_cpus1.itb.align_faults                0                       # Number of TLB faults due to alignment restrictions
system.switch_cpus1.itb.prefetch_faults             0                       # Number of TLB faults due to prefetch
system.switch_cpus1.itb.domain_faults               0                       # Number of TLB faults due to domain restrictions
system.switch_cpus1.itb.perms_faults                0                       # Number of TLB faults due to permissions restrictions
system.switch_cpus1.itb.read_accesses               0                       # DTB read accesses
system.switch_cpus1.itb.write_accesses              0                       # DTB write accesses
system.switch_cpus1.itb.inst_accesses               0                       # ITB inst accesses
system.switch_cpus1.itb.hits                        0                       # DTB hits
system.switch_cpus1.itb.misses                      0                       # DTB misses
system.switch_cpus1.itb.accesses                    0                       # DTB accesses
system.cpu1.workload.num_syscalls                   0                       # Number of system calls
system.switch_cpus1.numCycles               143220015                       # number of cpu cycles simulated
system.switch_cpus1.numWorkItemsStarted             0                       # number of work items this cpu started
system.switch_cpus1.numWorkItemsCompleted            0                       # number of work items this cpu completed
system.switch_cpus1.BPredUnit.lookups        22225394                       # Number of BP lookups
system.switch_cpus1.BPredUnit.condPredicted     18320092                       # Number of conditional branches predicted
system.switch_cpus1.BPredUnit.condIncorrect      1984945                       # Number of conditional branches incorrect
system.switch_cpus1.BPredUnit.BTBLookups      9115660                       # Number of BTB lookups
system.switch_cpus1.BPredUnit.BTBHits         8524278                       # Number of BTB hits
system.switch_cpus1.BPredUnit.BTBCorrect            0                       # Number of correct BTB predictions (this stat may not work properly.
system.switch_cpus1.BPredUnit.usedRAS         2332438                       # Number of times the RAS was used to get a target.
system.switch_cpus1.BPredUnit.RASInCorrect        87787                       # Number of incorrect RAS predictions.
system.switch_cpus1.fetch.icacheStallCycles    108330719                       # Number of cycles fetch is stalled on an Icache miss
system.switch_cpus1.fetch.Insts             122077862                       # Number of instructions fetch has processed
system.switch_cpus1.fetch.Branches           22225394                       # Number of branches that fetch encountered
system.switch_cpus1.fetch.predictedBranches     10856716                       # Number of branches that fetch has predicted taken
system.switch_cpus1.fetch.Cycles             25518386                       # Number of cycles fetch has run and was not squashing or blocked
system.switch_cpus1.fetch.SquashCycles        5869776                       # Number of cycles fetch has spent squashing
system.switch_cpus1.fetch.BlockedCycles       3166347                       # Number of cycles fetch has spent blocked
system.switch_cpus1.fetch.CacheLines         12566839                       # Number of cache lines fetched
system.switch_cpus1.fetch.IcacheSquashes      1642903                       # Number of outstanding Icache misses that were squashed
system.switch_cpus1.fetch.rateDist::samples    140867176                       # Number of instructions fetched each cycle (Total)
system.switch_cpus1.fetch.rateDist::mean     1.064153                       # Number of instructions fetched each cycle (Total)
system.switch_cpus1.fetch.rateDist::stdev     2.484288                       # Number of instructions fetched each cycle (Total)
system.switch_cpus1.fetch.rateDist::underflows            0      0.00%      0.00% # Number of instructions fetched each cycle (Total)
system.switch_cpus1.fetch.rateDist::0       115348790     81.88%     81.88% # Number of instructions fetched each cycle (Total)
system.switch_cpus1.fetch.rateDist::1         1327089      0.94%     82.83% # Number of instructions fetched each cycle (Total)
system.switch_cpus1.fetch.rateDist::2         1880851      1.34%     84.16% # Number of instructions fetched each cycle (Total)
system.switch_cpus1.fetch.rateDist::3         2466533      1.75%     85.91% # Number of instructions fetched each cycle (Total)
system.switch_cpus1.fetch.rateDist::4         2764994      1.96%     87.88% # Number of instructions fetched each cycle (Total)
system.switch_cpus1.fetch.rateDist::5         2056622      1.46%     89.34% # Number of instructions fetched each cycle (Total)
system.switch_cpus1.fetch.rateDist::6         1181341      0.84%     90.17% # Number of instructions fetched each cycle (Total)
system.switch_cpus1.fetch.rateDist::7         1742999      1.24%     91.41% # Number of instructions fetched each cycle (Total)
system.switch_cpus1.fetch.rateDist::8        12097957      8.59%    100.00% # Number of instructions fetched each cycle (Total)
system.switch_cpus1.fetch.rateDist::overflows            0      0.00%    100.00% # Number of instructions fetched each cycle (Total)
system.switch_cpus1.fetch.rateDist::min_value            0                       # Number of instructions fetched each cycle (Total)
system.switch_cpus1.fetch.rateDist::max_value            8                       # Number of instructions fetched each cycle (Total)
system.switch_cpus1.fetch.rateDist::total    140867176                       # Number of instructions fetched each cycle (Total)
system.switch_cpus1.fetch.branchRate         0.155184                       # Number of branch fetches per cycle
system.switch_cpus1.fetch.rate               0.852380                       # Number of inst fetches per cycle
system.switch_cpus1.decode.IdleCycles       107138183                       # Number of cycles decode is idle
system.switch_cpus1.decode.BlockedCycles      4757752                       # Number of cycles decode is blocked
system.switch_cpus1.decode.RunCycles         25061194                       # Number of cycles decode is running
system.switch_cpus1.decode.UnblockCycles        58556                       # Number of cycles decode is unblocking
system.switch_cpus1.decode.SquashCycles       3851490                       # Number of cycles decode is squashing
system.switch_cpus1.decode.BranchResolved      3551382                       # Number of times decode resolved a branch
system.switch_cpus1.decode.BranchMispred          241                       # Number of times decode detected a branch misprediction
system.switch_cpus1.decode.DecodedInsts     147313098                       # Number of instructions handled by decode
system.switch_cpus1.decode.SquashedInsts         1311                       # Number of squashed instructions handled by decode
system.switch_cpus1.rename.SquashCycles       3851490                       # Number of cycles rename is squashing
system.switch_cpus1.rename.IdleCycles       107876388                       # Number of cycles rename is idle
system.switch_cpus1.rename.BlockCycles        1063288                       # Number of cycles rename is blocking
system.switch_cpus1.rename.serializeStallCycles      2365279                       # count of cycles rename stalled for serializing inst
system.switch_cpus1.rename.RunCycles         24384291                       # Number of cycles rename is running
system.switch_cpus1.rename.UnblockCycles      1326434                       # Number of cycles rename is unblocking
system.switch_cpus1.rename.RenamedInsts     146335532                       # Number of instructions processed by rename
system.switch_cpus1.rename.ROBFullEvents         1164                       # Number of times rename has blocked due to ROB full
system.switch_cpus1.rename.IQFullEvents        267743                       # Number of times rename has blocked due to IQ full
system.switch_cpus1.rename.LSQFullEvents       548297                       # Number of times rename has blocked due to LSQ full
system.switch_cpus1.rename.FullRegisterEvents          964                       # Number of times there has been no free registers
system.switch_cpus1.rename.RenamedOperands    204071889                       # Number of destination operands rename has renamed
system.switch_cpus1.rename.RenameLookups    683635814                       # Number of register rename lookups that rename has made
system.switch_cpus1.rename.int_rename_lookups    683635814                       # Number of integer rename lookups
system.switch_cpus1.rename.CommittedMaps    166804705                       # Number of HB maps that are committed
system.switch_cpus1.rename.UndoneMaps        37267184                       # Number of HB maps that are undone due to squashing
system.switch_cpus1.rename.serializingInsts        38695                       # count of serializing insts renamed
system.switch_cpus1.rename.tempSerializingInsts        22412                       # count of temporary serializing insts renamed
system.switch_cpus1.rename.skidInsts          4006920                       # count of insts added to the skid buffer
system.switch_cpus1.memDep0.insertedLoads     13907686                       # Number of loads inserted to the mem dependence unit.
system.switch_cpus1.memDep0.insertedStores      7228390                       # Number of stores inserted to the mem dependence unit.
system.switch_cpus1.memDep0.conflictingLoads       119802                       # Number of conflicting loads.
system.switch_cpus1.memDep0.conflictingStores      1576629                       # Number of conflicting stores.
system.switch_cpus1.iq.iqInstsAdded         142237664                       # Number of instructions added to the IQ (excludes non-spec)
system.switch_cpus1.iq.iqNonSpecInstsAdded        38656                       # Number of non-speculative instructions added to the IQ
system.switch_cpus1.iq.iqInstsIssued        133136369                       # Number of instructions issued
system.switch_cpus1.iq.iqSquashedInstsIssued        27378                       # Number of squashed instructions issued
system.switch_cpus1.iq.iqSquashedInstsExamined     20420132                       # Number of squashed instructions iterated over during squash; mainly for profiling
system.switch_cpus1.iq.iqSquashedOperandsExamined     48168385                       # Number of squashed operands that are examined and possibly removed from graph
system.switch_cpus1.iq.iqSquashedNonSpecRemoved         6092                       # Number of squashed non-spec instructions that were removed
system.switch_cpus1.iq.issued_per_cycle::samples    140867176                       # Number of insts issued each cycle
system.switch_cpus1.iq.issued_per_cycle::mean     0.945120                       # Number of insts issued each cycle
system.switch_cpus1.iq.issued_per_cycle::stdev     1.505308                       # Number of insts issued each cycle
system.switch_cpus1.iq.issued_per_cycle::underflows            0      0.00%      0.00% # Number of insts issued each cycle
system.switch_cpus1.iq.issued_per_cycle::0     84524331     60.00%     60.00% # Number of insts issued each cycle
system.switch_cpus1.iq.issued_per_cycle::1     22693300     16.11%     76.11% # Number of insts issued each cycle
system.switch_cpus1.iq.issued_per_cycle::2     12576486      8.93%     85.04% # Number of insts issued each cycle
system.switch_cpus1.iq.issued_per_cycle::3      8106752      5.75%     90.80% # Number of insts issued each cycle
system.switch_cpus1.iq.issued_per_cycle::4      7436994      5.28%     96.07% # Number of insts issued each cycle
system.switch_cpus1.iq.issued_per_cycle::5      2963873      2.10%     98.18% # Number of insts issued each cycle
system.switch_cpus1.iq.issued_per_cycle::6      1803263      1.28%     99.46% # Number of insts issued each cycle
system.switch_cpus1.iq.issued_per_cycle::7       514494      0.37%     99.82% # Number of insts issued each cycle
system.switch_cpus1.iq.issued_per_cycle::8       247683      0.18%    100.00% # Number of insts issued each cycle
system.switch_cpus1.iq.issued_per_cycle::overflows            0      0.00%    100.00% # Number of insts issued each cycle
system.switch_cpus1.iq.issued_per_cycle::min_value            0                       # Number of insts issued each cycle
system.switch_cpus1.iq.issued_per_cycle::max_value            8                       # Number of insts issued each cycle
system.switch_cpus1.iq.issued_per_cycle::total    140867176                       # Number of insts issued each cycle
system.switch_cpus1.iq.fu_full::No_OpClass            0      0.00%      0.00% # attempts to use FU when none available
system.switch_cpus1.iq.fu_full::IntAlu          63965     22.73%     22.73% # attempts to use FU when none available
system.switch_cpus1.iq.fu_full::IntMult             0      0.00%     22.73% # attempts to use FU when none available
system.switch_cpus1.iq.fu_full::IntDiv              0      0.00%     22.73% # attempts to use FU when none available
system.switch_cpus1.iq.fu_full::FloatAdd            0      0.00%     22.73% # attempts to use FU when none available
system.switch_cpus1.iq.fu_full::FloatCmp            0      0.00%     22.73% # attempts to use FU when none available
system.switch_cpus1.iq.fu_full::FloatCvt            0      0.00%     22.73% # attempts to use FU when none available
system.switch_cpus1.iq.fu_full::FloatMult            0      0.00%     22.73% # attempts to use FU when none available
system.switch_cpus1.iq.fu_full::FloatDiv            0      0.00%     22.73% # attempts to use FU when none available
system.switch_cpus1.iq.fu_full::FloatSqrt            0      0.00%     22.73% # attempts to use FU when none available
system.switch_cpus1.iq.fu_full::SimdAdd             0      0.00%     22.73% # attempts to use FU when none available
system.switch_cpus1.iq.fu_full::SimdAddAcc            0      0.00%     22.73% # attempts to use FU when none available
system.switch_cpus1.iq.fu_full::SimdAlu             0      0.00%     22.73% # attempts to use FU when none available
system.switch_cpus1.iq.fu_full::SimdCmp             0      0.00%     22.73% # attempts to use FU when none available
system.switch_cpus1.iq.fu_full::SimdCvt             0      0.00%     22.73% # attempts to use FU when none available
system.switch_cpus1.iq.fu_full::SimdMisc            0      0.00%     22.73% # attempts to use FU when none available
system.switch_cpus1.iq.fu_full::SimdMult            0      0.00%     22.73% # attempts to use FU when none available
system.switch_cpus1.iq.fu_full::SimdMultAcc            0      0.00%     22.73% # attempts to use FU when none available
system.switch_cpus1.iq.fu_full::SimdShift            0      0.00%     22.73% # attempts to use FU when none available
system.switch_cpus1.iq.fu_full::SimdShiftAcc            0      0.00%     22.73% # attempts to use FU when none available
system.switch_cpus1.iq.fu_full::SimdSqrt            0      0.00%     22.73% # attempts to use FU when none available
system.switch_cpus1.iq.fu_full::SimdFloatAdd            0      0.00%     22.73% # attempts to use FU when none available
system.switch_cpus1.iq.fu_full::SimdFloatAlu            0      0.00%     22.73% # attempts to use FU when none available
system.switch_cpus1.iq.fu_full::SimdFloatCmp            0      0.00%     22.73% # attempts to use FU when none available
system.switch_cpus1.iq.fu_full::SimdFloatCvt            0      0.00%     22.73% # attempts to use FU when none available
system.switch_cpus1.iq.fu_full::SimdFloatDiv            0      0.00%     22.73% # attempts to use FU when none available
system.switch_cpus1.iq.fu_full::SimdFloatMisc            0      0.00%     22.73% # attempts to use FU when none available
system.switch_cpus1.iq.fu_full::SimdFloatMult            0      0.00%     22.73% # attempts to use FU when none available
system.switch_cpus1.iq.fu_full::SimdFloatMultAcc            0      0.00%     22.73% # attempts to use FU when none available
system.switch_cpus1.iq.fu_full::SimdFloatSqrt            0      0.00%     22.73% # attempts to use FU when none available
system.switch_cpus1.iq.fu_full::MemRead         93962     33.38%     56.11% # attempts to use FU when none available
system.switch_cpus1.iq.fu_full::MemWrite       123544     43.89%    100.00% # attempts to use FU when none available
system.switch_cpus1.iq.fu_full::IprAccess            0      0.00%    100.00% # attempts to use FU when none available
system.switch_cpus1.iq.fu_full::InstPrefetch            0      0.00%    100.00% # attempts to use FU when none available
system.switch_cpus1.iq.FU_type_0::No_OpClass            0      0.00%      0.00% # Type of FU issued
system.switch_cpus1.iq.FU_type_0::IntAlu    111775083     83.96%     83.96% # Type of FU issued
system.switch_cpus1.iq.FU_type_0::IntMult      2030672      1.53%     85.48% # Type of FU issued
system.switch_cpus1.iq.FU_type_0::IntDiv            0      0.00%     85.48% # Type of FU issued
system.switch_cpus1.iq.FU_type_0::FloatAdd            0      0.00%     85.48% # Type of FU issued
system.switch_cpus1.iq.FU_type_0::FloatCmp            0      0.00%     85.48% # Type of FU issued
system.switch_cpus1.iq.FU_type_0::FloatCvt            0      0.00%     85.48% # Type of FU issued
system.switch_cpus1.iq.FU_type_0::FloatMult            0      0.00%     85.48% # Type of FU issued
system.switch_cpus1.iq.FU_type_0::FloatDiv            0      0.00%     85.48% # Type of FU issued
system.switch_cpus1.iq.FU_type_0::FloatSqrt            0      0.00%     85.48% # Type of FU issued
system.switch_cpus1.iq.FU_type_0::SimdAdd            0      0.00%     85.48% # Type of FU issued
system.switch_cpus1.iq.FU_type_0::SimdAddAcc            0      0.00%     85.48% # Type of FU issued
system.switch_cpus1.iq.FU_type_0::SimdAlu            0      0.00%     85.48% # Type of FU issued
system.switch_cpus1.iq.FU_type_0::SimdCmp            0      0.00%     85.48% # Type of FU issued
system.switch_cpus1.iq.FU_type_0::SimdCvt            0      0.00%     85.48% # Type of FU issued
system.switch_cpus1.iq.FU_type_0::SimdMisc            0      0.00%     85.48% # Type of FU issued
system.switch_cpus1.iq.FU_type_0::SimdMult            0      0.00%     85.48% # Type of FU issued
system.switch_cpus1.iq.FU_type_0::SimdMultAcc            0      0.00%     85.48% # Type of FU issued
system.switch_cpus1.iq.FU_type_0::SimdShift            0      0.00%     85.48% # Type of FU issued
system.switch_cpus1.iq.FU_type_0::SimdShiftAcc            0      0.00%     85.48% # Type of FU issued
system.switch_cpus1.iq.FU_type_0::SimdSqrt            0      0.00%     85.48% # Type of FU issued
system.switch_cpus1.iq.FU_type_0::SimdFloatAdd            0      0.00%     85.48% # Type of FU issued
system.switch_cpus1.iq.FU_type_0::SimdFloatAlu            0      0.00%     85.48% # Type of FU issued
system.switch_cpus1.iq.FU_type_0::SimdFloatCmp            0      0.00%     85.48% # Type of FU issued
system.switch_cpus1.iq.FU_type_0::SimdFloatCvt            0      0.00%     85.48% # Type of FU issued
system.switch_cpus1.iq.FU_type_0::SimdFloatDiv            0      0.00%     85.48% # Type of FU issued
system.switch_cpus1.iq.FU_type_0::SimdFloatMisc        16283      0.01%     85.49% # Type of FU issued
system.switch_cpus1.iq.FU_type_0::SimdFloatMult            0      0.00%     85.49% # Type of FU issued
system.switch_cpus1.iq.FU_type_0::SimdFloatMultAcc            0      0.00%     85.49% # Type of FU issued
system.switch_cpus1.iq.FU_type_0::SimdFloatSqrt            0      0.00%     85.49% # Type of FU issued
system.switch_cpus1.iq.FU_type_0::MemRead     12142323      9.12%     94.61% # Type of FU issued
system.switch_cpus1.iq.FU_type_0::MemWrite      7172008      5.39%    100.00% # Type of FU issued
system.switch_cpus1.iq.FU_type_0::IprAccess            0      0.00%    100.00% # Type of FU issued
system.switch_cpus1.iq.FU_type_0::InstPrefetch            0      0.00%    100.00% # Type of FU issued
system.switch_cpus1.iq.FU_type_0::total     133136369                       # Type of FU issued
system.switch_cpus1.iq.rate                  0.929593                       # Inst issue rate
system.switch_cpus1.iq.fu_busy_cnt             281471                       # FU busy when requested
system.switch_cpus1.iq.fu_busy_rate          0.002114                       # FU busy rate (busy events/executed inst)
system.switch_cpus1.iq.int_inst_queue_reads    407448763                       # Number of integer instruction queue reads
system.switch_cpus1.iq.int_inst_queue_writes    162696779                       # Number of integer instruction queue writes
system.switch_cpus1.iq.int_inst_queue_wakeup_accesses    130594178                       # Number of integer instruction queue wakeup accesses
system.switch_cpus1.iq.fp_inst_queue_reads            0                       # Number of floating instruction queue reads
system.switch_cpus1.iq.fp_inst_queue_writes            0                       # Number of floating instruction queue writes
system.switch_cpus1.iq.fp_inst_queue_wakeup_accesses            0                       # Number of floating instruction queue wakeup accesses
system.switch_cpus1.iq.int_alu_accesses     133417840                       # Number of integer alu accesses
system.switch_cpus1.iq.fp_alu_accesses              0                       # Number of floating point alu accesses
system.switch_cpus1.iew.lsq.thread0.forwLoads       325942                       # Number of loads that had data forwarded from stores
system.switch_cpus1.iew.lsq.thread0.invAddrLoads            0                       # Number of loads ignored due to an invalid address
system.switch_cpus1.iew.lsq.thread0.squashedLoads      2900303                       # Number of loads squashed
system.switch_cpus1.iew.lsq.thread0.ignoredResponses          153                       # Number of memory responses ignored because the instruction is squashed
system.switch_cpus1.iew.lsq.thread0.memOrderViolation          327                       # Number of memory ordering violations
system.switch_cpus1.iew.lsq.thread0.squashedStores       173015                       # Number of stores squashed
system.switch_cpus1.iew.lsq.thread0.invAddrSwpfs            0                       # Number of software prefetches ignored due to an invalid address
system.switch_cpus1.iew.lsq.thread0.blockedLoads            0                       # Number of blocked loads due to partial load-store forwarding
system.switch_cpus1.iew.lsq.thread0.rescheduledLoads            0                       # Number of loads that were rescheduled
system.switch_cpus1.iew.lsq.thread0.cacheBlocked          119                       # Number of times an access to memory failed due to the cache being blocked
system.switch_cpus1.iew.iewIdleCycles               0                       # Number of cycles IEW is idle
system.switch_cpus1.iew.iewSquashCycles       3851490                       # Number of cycles IEW is squashing
system.switch_cpus1.iew.iewBlockCycles         804529                       # Number of cycles IEW is blocking
system.switch_cpus1.iew.iewUnblockCycles       108355                       # Number of cycles IEW is unblocking
system.switch_cpus1.iew.iewDispatchedInsts    142276320                       # Number of instructions dispatched to IQ
system.switch_cpus1.iew.iewDispSquashedInsts      1317525                       # Number of squashed instructions skipped by dispatch
system.switch_cpus1.iew.iewDispLoadInsts     13907686                       # Number of dispatched load instructions
system.switch_cpus1.iew.iewDispStoreInsts      7228390                       # Number of dispatched store instructions
system.switch_cpus1.iew.iewDispNonSpecInsts        22374                       # Number of dispatched non-speculative instructions
system.switch_cpus1.iew.iewIQFullEvents         82809                       # Number of times the IQ has become full, causing a stall
system.switch_cpus1.iew.iewLSQFullEvents            0                       # Number of times the LSQ has become full, causing a stall
system.switch_cpus1.iew.memOrderViolationEvents          327                       # Number of memory order violations
system.switch_cpus1.iew.predictedTakenIncorrect      1167641                       # Number of branches that were predicted taken incorrectly
system.switch_cpus1.iew.predictedNotTakenIncorrect      1119558                       # Number of branches that were predicted not taken incorrectly
system.switch_cpus1.iew.branchMispredicts      2287199                       # Number of branch mispredicts detected at execute
system.switch_cpus1.iew.iewExecutedInsts    131335658                       # Number of executed instructions
system.switch_cpus1.iew.iewExecLoadInsts     11977357                       # Number of load instructions executed
system.switch_cpus1.iew.iewExecSquashedInsts      1800711                       # Number of squashed instructions skipped in execute
system.switch_cpus1.iew.exec_swp                    0                       # number of swp insts executed
system.switch_cpus1.iew.exec_nop                    0                       # number of nop insts executed
system.switch_cpus1.iew.exec_refs            19147658                       # number of memory reference insts executed
system.switch_cpus1.iew.exec_branches        18405940                       # Number of branches executed
system.switch_cpus1.iew.exec_stores           7170301                       # Number of stores executed
system.switch_cpus1.iew.exec_rate            0.917020                       # Inst execution rate
system.switch_cpus1.iew.wb_sent             130594361                       # cumulative count of insts sent to commit
system.switch_cpus1.iew.wb_count            130594178                       # cumulative count of insts written-back
system.switch_cpus1.iew.wb_producers         76493980                       # num instructions producing a value
system.switch_cpus1.iew.wb_consumers        207782087                       # num instructions consuming a value
system.switch_cpus1.iew.wb_penalized                0                       # number of instrctions required to write to 'other' IQ
system.switch_cpus1.iew.wb_rate              0.911843                       # insts written-back per cycle
system.switch_cpus1.iew.wb_fanout            0.368145                       # average fanout of values written-back
system.switch_cpus1.iew.wb_penalized_rate            0                       # fraction of instructions written-back that wrote to 'other' IQ
system.switch_cpus1.commit.commitCommittedInsts     97689168                       # The number of committed instructions
system.switch_cpus1.commit.commitCommittedOps    120064209                       # The number of committed instructions
system.switch_cpus1.commit.commitSquashedInsts     22220959                       # The number of squashed insts skipped by commit
system.switch_cpus1.commit.commitNonSpecStalls        32564                       # The number of times commit has been forced to stall to communicate backwards
system.switch_cpus1.commit.branchMispredicts      2017446                       # The number of times a branch was mispredicted
system.switch_cpus1.commit.committed_per_cycle::samples    137015686                       # Number of insts commited each cycle
system.switch_cpus1.commit.committed_per_cycle::mean     0.876281                       # Number of insts commited each cycle
system.switch_cpus1.commit.committed_per_cycle::stdev     1.683375                       # Number of insts commited each cycle
system.switch_cpus1.commit.committed_per_cycle::underflows            0      0.00%      0.00% # Number of insts commited each cycle
system.switch_cpus1.commit.committed_per_cycle::0     88346464     64.48%     64.48% # Number of insts commited each cycle
system.switch_cpus1.commit.committed_per_cycle::1     23400941     17.08%     81.56% # Number of insts commited each cycle
system.switch_cpus1.commit.committed_per_cycle::2      9191211      6.71%     88.27% # Number of insts commited each cycle
system.switch_cpus1.commit.committed_per_cycle::3      4729992      3.45%     91.72% # Number of insts commited each cycle
system.switch_cpus1.commit.committed_per_cycle::4      4123833      3.01%     94.73% # Number of insts commited each cycle
system.switch_cpus1.commit.committed_per_cycle::5      1982567      1.45%     96.18% # Number of insts commited each cycle
system.switch_cpus1.commit.committed_per_cycle::6      1717167      1.25%     97.43% # Number of insts commited each cycle
system.switch_cpus1.commit.committed_per_cycle::7       808387      0.59%     98.02% # Number of insts commited each cycle
system.switch_cpus1.commit.committed_per_cycle::8      2715124      1.98%    100.00% # Number of insts commited each cycle
system.switch_cpus1.commit.committed_per_cycle::overflows            0      0.00%    100.00% # Number of insts commited each cycle
system.switch_cpus1.commit.committed_per_cycle::min_value            0                       # Number of insts commited each cycle
system.switch_cpus1.commit.committed_per_cycle::max_value            8                       # Number of insts commited each cycle
system.switch_cpus1.commit.committed_per_cycle::total    137015686                       # Number of insts commited each cycle
system.switch_cpus1.commit.committedInsts     97689168                       # Number of instructions committed
system.switch_cpus1.commit.committedOps     120064209                       # Number of ops (including micro ops) committed
system.switch_cpus1.commit.swp_count                0                       # Number of s/w prefetches committed
[...]
system.cpu2.icache.ReadReq_miss_latency::total      2818002                       # number of ReadReq miss cycles
system.cpu2.icache.demand_miss_latency::switch_cpus2.inst      2818002                       # number of demand (read+write) miss cycles
system.cpu2.icache.demand_miss_latency::total      2818002                       # number of demand (read+write) miss cycles
system.cpu2.icache.overall_miss_latency::switch_cpus2.inst      2818002                       # number of overall miss cycles
system.cpu2.icache.overall_miss_latency::total      2818002                       # number of overall miss cycles
system.cpu2.icache.ReadReq_accesses::switch_cpus2.inst     12764389                       # number of ReadReq accesses(hits+misses)
system.cpu2.icache.ReadReq_accesses::total     12764389                       # number of ReadReq accesses(hits+misses)
system.cpu2.icache.demand_accesses::switch_cpus2.inst     12764389                       # number of demand (read+write) accesses
system.cpu2.icache.demand_accesses::total     12764389                       # number of demand (read+write) accesses
system.cpu2.icache.overall_accesses::switch_cpus2.inst     12764389                       # number of overall (read+write) accesses
system.cpu2.icache.overall_accesses::total     12764389                       # number of overall (read+write) accesses
system.cpu2.icache.ReadReq_miss_rate::switch_cpus2.inst     0.000001                       # miss rate for ReadReq accesses
system.cpu2.icache.ReadReq_miss_rate::total     0.000001                       # miss rate for ReadReq accesses
system.cpu2.icache.demand_miss_rate::switch_cpus2.inst     0.000001                       # miss rate for demand accesses
system.cpu2.icache.demand_miss_rate::total     0.000001                       # miss rate for demand accesses
system.cpu2.icache.overall_miss_rate::switch_cpus2.inst     0.000001                       # miss rate for overall accesses
system.cpu2.icache.overall_miss_rate::total     0.000001                       # miss rate for overall accesses
system.cpu2.icache.ReadReq_avg_miss_latency::switch_cpus2.inst 176125.125000                       # average ReadReq miss latency
system.cpu2.icache.ReadReq_avg_miss_latency::total 176125.125000                       # average ReadReq miss latency
system.cpu2.icache.demand_avg_miss_latency::switch_cpus2.inst 176125.125000                       # average overall miss latency
system.cpu2.icache.demand_avg_miss_latency::total 176125.125000                       # average overall miss latency
system.cpu2.icache.overall_avg_miss_latency::switch_cpus2.inst 176125.125000                       # average overall miss latency
system.cpu2.icache.overall_avg_miss_latency::total 176125.125000                       # average overall miss latency
system.cpu2.icache.blocked_cycles::no_mshrs            0                       # number of cycles access was blocked
system.cpu2.icache.blocked_cycles::no_targets            0                       # number of cycles access was blocked
system.cpu2.icache.blocked::no_mshrs                0                       # number of cycles access was blocked
system.cpu2.icache.blocked::no_targets              0                       # number of cycles access was blocked
system.cpu2.icache.avg_blocked_cycles::no_mshrs          nan                       # average number of cycles each access was blocked
system.cpu2.icache.avg_blocked_cycles::no_targets          nan                       # average number of cycles each access was blocked
system.cpu2.icache.fast_writes                      0                       # number of fast writes performed
system.cpu2.icache.cache_copies                     0                       # number of cache copies performed
system.cpu2.icache.ReadReq_mshr_hits::switch_cpus2.inst            2                       # number of ReadReq MSHR hits
system.cpu2.icache.ReadReq_mshr_hits::total            2                       # number of ReadReq MSHR hits
system.cpu2.icache.demand_mshr_hits::switch_cpus2.inst            2                       # number of demand (read+write) MSHR hits
system.cpu2.icache.demand_mshr_hits::total            2                       # number of demand (read+write) MSHR hits
system.cpu2.icache.overall_mshr_hits::switch_cpus2.inst            2                       # number of overall MSHR hits
system.cpu2.icache.overall_mshr_hits::total            2                       # number of overall MSHR hits
system.cpu2.icache.ReadReq_mshr_misses::switch_cpus2.inst           14                       # number of ReadReq MSHR misses
system.cpu2.icache.ReadReq_mshr_misses::total           14                       # number of ReadReq MSHR misses
system.cpu2.icache.demand_mshr_misses::switch_cpus2.inst           14                       # number of demand (read+write) MSHR misses
system.cpu2.icache.demand_mshr_misses::total           14                       # number of demand (read+write) MSHR misses
system.cpu2.icache.overall_mshr_misses::switch_cpus2.inst           14                       # number of overall MSHR misses
system.cpu2.icache.overall_mshr_misses::total           14                       # number of overall MSHR misses
system.cpu2.icache.ReadReq_mshr_miss_latency::switch_cpus2.inst      2482431                       # number of ReadReq MSHR miss cycles
system.cpu2.icache.ReadReq_mshr_miss_latency::total      2482431                       # number of ReadReq MSHR miss cycles
system.cpu2.icache.demand_mshr_miss_latency::switch_cpus2.inst      2482431                       # number of demand (read+write) MSHR miss cycles
system.cpu2.icache.demand_mshr_miss_latency::total      2482431                       # number of demand (read+write) MSHR miss cycles
system.cpu2.icache.overall_mshr_miss_latency::switch_cpus2.inst      2482431                       # number of overall MSHR miss cycles
system.cpu2.icache.overall_mshr_miss_latency::total      2482431                       # number of overall MSHR miss cycles
system.cpu2.icache.ReadReq_mshr_miss_rate::switch_cpus2.inst     0.000001                       # mshr miss rate for ReadReq accesses
system.cpu2.icache.ReadReq_mshr_miss_rate::total     0.000001                       # mshr miss rate for ReadReq accesses
system.cpu2.icache.demand_mshr_miss_rate::switch_cpus2.inst     0.000001                       # mshr miss rate for demand accesses
system.cpu2.icache.demand_mshr_miss_rate::total     0.000001                       # mshr miss rate for demand accesses
system.cpu2.icache.overall_mshr_miss_rate::switch_cpus2.inst     0.000001                       # mshr miss rate for overall accesses
system.cpu2.icache.overall_mshr_miss_rate::total     0.000001                       # mshr miss rate for overall accesses
system.cpu2.icache.ReadReq_avg_mshr_miss_latency::switch_cpus2.inst 177316.500000                       # average ReadReq mshr miss latency
system.cpu2.icache.ReadReq_avg_mshr_miss_latency::total 177316.500000                       # average ReadReq mshr miss latency
system.cpu2.icache.demand_avg_mshr_miss_latency::switch_cpus2.inst 177316.500000                       # average overall mshr miss latency
system.cpu2.icache.demand_avg_mshr_miss_latency::total 177316.500000                       # average overall mshr miss latency
system.cpu2.icache.overall_avg_mshr_miss_latency::switch_cpus2.inst 177316.500000                       # average overall mshr miss latency
system.cpu2.icache.overall_avg_mshr_miss_latency::total 177316.500000                       # average overall mshr miss latency
system.cpu2.icache.no_allocate_misses               0                       # Number of misses that were no-allocate
system.cpu2.dcache.replacements                 47135                       # number of replacements
system.cpu2.dcache.tagsinuse                      256                       # Cycle average of tags in use
system.cpu2.dcache.total_refs               227475865                       # Total number of references to valid blocks.
system.cpu2.dcache.sampled_refs                 47391                       # Sample count of references to valid blocks.
system.cpu2.dcache.avg_refs               4799.980271                       # Average number of references to valid blocks.
system.cpu2.dcache.warmup_cycle                     0                       # Cycle when the warmup percentage was hit.
system.cpu2.dcache.occ_blocks::switch_cpus2.data   211.316113                       # Average occupied blocks per requestor
system.cpu2.dcache.occ_blocks::cpu2.data    44.683887                       # Average occupied blocks per requestor
system.cpu2.dcache.occ_percent::switch_cpus2.data     0.825454                       # Average percentage of cache occupancy
system.cpu2.dcache.occ_percent::cpu2.data     0.174546                       # Average percentage of cache occupancy
system.cpu2.dcache.occ_percent::total               1                       # Average percentage of cache occupancy
system.cpu2.dcache.ReadReq_hits::switch_cpus2.data     18366101                       # number of ReadReq hits
system.cpu2.dcache.ReadReq_hits::total       18366101                       # number of ReadReq hits
system.cpu2.dcache.WriteReq_hits::switch_cpus2.data      4121692                       # number of WriteReq hits
system.cpu2.dcache.WriteReq_hits::total       4121692                       # number of WriteReq hits
system.cpu2.dcache.LoadLockedReq_hits::switch_cpus2.data         9442                       # number of LoadLockedReq hits
system.cpu2.dcache.LoadLockedReq_hits::total         9442                       # number of LoadLockedReq hits
system.cpu2.dcache.StoreCondReq_hits::switch_cpus2.data         9426                       # number of StoreCondReq hits
system.cpu2.dcache.StoreCondReq_hits::total         9426                       # number of StoreCondReq hits
system.cpu2.dcache.demand_hits::switch_cpus2.data     22487793                       # number of demand (read+write) hits
system.cpu2.dcache.demand_hits::total        22487793                       # number of demand (read+write) hits
system.cpu2.dcache.overall_hits::switch_cpus2.data     22487793                       # number of overall hits
system.cpu2.dcache.overall_hits::total       22487793                       # number of overall hits
system.cpu2.dcache.ReadReq_misses::switch_cpus2.data       174848                       # number of ReadReq misses
system.cpu2.dcache.ReadReq_misses::total       174848                       # number of ReadReq misses
system.cpu2.dcache.demand_misses::switch_cpus2.data       174848                       # number of demand (read+write) misses
system.cpu2.dcache.demand_misses::total        174848                       # number of demand (read+write) misses
system.cpu2.dcache.overall_misses::switch_cpus2.data       174848                       # number of overall misses
system.cpu2.dcache.overall_misses::total       174848                       # number of overall misses
system.cpu2.dcache.ReadReq_miss_latency::switch_cpus2.data  20863706193                       # number of ReadReq miss cycles
system.cpu2.dcache.ReadReq_miss_latency::total  20863706193                       # number of ReadReq miss cycles
system.cpu2.dcache.demand_miss_latency::switch_cpus2.data  20863706193                       # number of demand (read+write) miss cycles
system.cpu2.dcache.demand_miss_latency::total  20863706193                       # number of demand (read+write) miss cycles
system.cpu2.dcache.overall_miss_latency::switch_cpus2.data  20863706193                       # number of overall miss cycles
system.cpu2.dcache.overall_miss_latency::total  20863706193                       # number of overall miss cycles
system.cpu2.dcache.ReadReq_accesses::switch_cpus2.data     18540949                       # number of ReadReq accesses(hits+misses)
system.cpu2.dcache.ReadReq_accesses::total     18540949                       # number of ReadReq accesses(hits+misses)
system.cpu2.dcache.WriteReq_accesses::switch_cpus2.data      4121692                       # number of WriteReq accesses(hits+misses)
system.cpu2.dcache.WriteReq_accesses::total      4121692                       # number of WriteReq accesses(hits+misses)
system.cpu2.dcache.LoadLockedReq_accesses::switch_cpus2.data         9442                       # number of LoadLockedReq accesses(hits+misses)
system.cpu2.dcache.LoadLockedReq_accesses::total         9442                       # number of LoadLockedReq accesses(hits+misses)
system.cpu2.dcache.StoreCondReq_accesses::switch_cpus2.data         9426                       # number of StoreCondReq accesses(hits+misses)
system.cpu2.dcache.StoreCondReq_accesses::total         9426                       # number of StoreCondReq accesses(hits+misses)
system.cpu2.dcache.demand_accesses::switch_cpus2.data     22662641                       # number of demand (read+write) accesses
system.cpu2.dcache.demand_accesses::total     22662641                       # number of demand (read+write) accesses
system.cpu2.dcache.overall_accesses::switch_cpus2.data     22662641                       # number of overall (read+write) accesses
system.cpu2.dcache.overall_accesses::total     22662641                       # number of overall (read+write) accesses
system.cpu2.dcache.ReadReq_miss_rate::switch_cpus2.data     0.009430                       # miss rate for ReadReq accesses
system.cpu2.dcache.ReadReq_miss_rate::total     0.009430                       # miss rate for ReadReq accesses
system.cpu2.dcache.demand_miss_rate::switch_cpus2.data     0.007715                       # miss rate for demand accesses
system.cpu2.dcache.demand_miss_rate::total     0.007715                       # miss rate for demand accesses
system.cpu2.dcache.overall_miss_rate::switch_cpus2.data     0.007715                       # miss rate for overall accesses
system.cpu2.dcache.overall_miss_rate::total     0.007715                       # miss rate for overall accesses
system.cpu2.dcache.ReadReq_avg_miss_latency::switch_cpus2.data 119324.820375                       # average ReadReq miss latency
system.cpu2.dcache.ReadReq_avg_miss_latency::total 119324.820375                       # average ReadReq miss latency
system.cpu2.dcache.demand_avg_miss_latency::switch_cpus2.data 119324.820375                       # average overall miss latency
system.cpu2.dcache.demand_avg_miss_latency::total 119324.820375                       # average overall miss latency
system.cpu2.dcache.overall_avg_miss_latency::switch_cpus2.data 119324.820375                       # average overall miss latency
system.cpu2.dcache.overall_avg_miss_latency::total 119324.820375                       # average overall miss latency
system.cpu2.dcache.blocked_cycles::no_mshrs            0                       # number of cycles access was blocked
system.cpu2.dcache.blocked_cycles::no_targets            0                       # number of cycles access was blocked
system.cpu2.dcache.blocked::no_mshrs                0                       # number of cycles access was blocked
system.cpu2.dcache.blocked::no_targets              0                       # number of cycles access was blocked
system.cpu2.dcache.avg_blocked_cycles::no_mshrs          nan                       # average number of cycles each access was blocked
system.cpu2.dcache.avg_blocked_cycles::no_targets          nan                       # average number of cycles each access was blocked
system.cpu2.dcache.fast_writes                      0                       # number of fast writes performed
system.cpu2.dcache.cache_copies                     0                       # number of cache copies performed
system.cpu2.dcache.writebacks::writebacks         9789                       # number of writebacks
system.cpu2.dcache.writebacks::total             9789                       # number of writebacks
system.cpu2.dcache.ReadReq_mshr_hits::switch_cpus2.data       127713                       # number of ReadReq MSHR hits
system.cpu2.dcache.ReadReq_mshr_hits::total       127713                       # number of ReadReq MSHR hits
system.cpu2.dcache.demand_mshr_hits::switch_cpus2.data       127713                       # number of demand (read+write) MSHR hits
system.cpu2.dcache.demand_mshr_hits::total       127713                       # number of demand (read+write) MSHR hits
system.cpu2.dcache.overall_mshr_hits::switch_cpus2.data       127713                       # number of overall MSHR hits
system.cpu2.dcache.overall_mshr_hits::total       127713                       # number of overall MSHR hits
system.cpu2.dcache.ReadReq_mshr_misses::switch_cpus2.data        47135                       # number of ReadReq MSHR misses
system.cpu2.dcache.ReadReq_mshr_misses::total        47135                       # number of ReadReq MSHR misses
system.cpu2.dcache.demand_mshr_misses::switch_cpus2.data        47135                       # number of demand (read+write) MSHR misses
system.cpu2.dcache.demand_mshr_misses::total        47135                       # number of demand (read+write) MSHR misses
system.cpu2.dcache.overall_mshr_misses::switch_cpus2.data        47135                       # number of overall MSHR misses
system.cpu2.dcache.overall_mshr_misses::total        47135                       # number of overall MSHR misses
system.cpu2.dcache.ReadReq_mshr_miss_latency::switch_cpus2.data   4930701795                       # number of ReadReq MSHR miss cycles
system.cpu2.dcache.ReadReq_mshr_miss_latency::total   4930701795                       # number of ReadReq MSHR miss cycles
system.cpu2.dcache.demand_mshr_miss_latency::switch_cpus2.data   4930701795                       # number of demand (read+write) MSHR miss cycles
system.cpu2.dcache.demand_mshr_miss_latency::total   4930701795                       # number of demand (read+write) MSHR miss cycles
system.cpu2.dcache.overall_mshr_miss_latency::switch_cpus2.data   4930701795                       # number of overall MSHR miss cycles
system.cpu2.dcache.overall_mshr_miss_latency::total   4930701795                       # number of overall MSHR miss cycles
system.cpu2.dcache.ReadReq_mshr_miss_rate::switch_cpus2.data     0.002542                       # mshr miss rate for ReadReq accesses
system.cpu2.dcache.ReadReq_mshr_miss_rate::total     0.002542                       # mshr miss rate for ReadReq accesses
system.cpu2.dcache.demand_mshr_miss_rate::switch_cpus2.data     0.002080                       # mshr miss rate for demand accesses
system.cpu2.dcache.demand_mshr_miss_rate::total     0.002080                       # mshr miss rate for demand accesses
system.cpu2.dcache.overall_mshr_miss_rate::switch_cpus2.data     0.002080                       # mshr miss rate for overall accesses
system.cpu2.dcache.overall_mshr_miss_rate::total     0.002080                       # mshr miss rate for overall accesses
system.cpu2.dcache.ReadReq_avg_mshr_miss_latency::switch_cpus2.data 104608.078816                       # average ReadReq mshr miss latency
system.cpu2.dcache.ReadReq_avg_mshr_miss_latency::total 104608.078816                       # average ReadReq mshr miss latency
system.cpu2.dcache.demand_avg_mshr_miss_latency::switch_cpus2.data 104608.078816                       # average overall mshr miss latency
system.cpu2.dcache.demand_avg_mshr_miss_latency::total 104608.078816                       # average overall mshr miss latency
system.cpu2.dcache.overall_avg_mshr_miss_latency::switch_cpus2.data 104608.078816                       # average overall mshr miss latency
system.cpu2.dcache.overall_avg_mshr_miss_latency::total 104608.078816                       # average overall mshr miss latency
system.cpu2.dcache.no_allocate_misses               0                       # Number of misses that were no-allocate

---------- End Simulation Statistics   ----------
