
---------- Begin Simulation Statistics ----------
sim_seconds                                  0.108738                       # Number of seconds simulated
sim_ticks                                108737685195                       # Number of ticks simulated
final_tick                               621346888083                       # Number of ticks from beginning of simulation (restored from checkpoints and never reset)
sim_freq                                 1000000000000                       # Frequency of simulated ticks
host_inst_rate                                 301236                       # Simulator instruction rate (inst/s)
host_op_rate                                   382975                       # Simulator op (including micro ops) rate (op/s)
host_tick_rate                                1939089                       # Simulator tick rate (ticks/s)
host_mem_usage                               67753912                       # Number of bytes of host memory used
host_seconds                                 56076.70                       # Real time elapsed on the host
sim_insts                                 16892305385                       # Number of instructions simulated
sim_ops                                   21475994196                       # Number of ops (including micro ops) simulated
system.physmem.bytes_read::switch_cpus00.inst         5760                       # Number of bytes read from this memory
system.physmem.bytes_read::switch_cpus00.data      4293760                       # Number of bytes read from this memory
system.physmem.bytes_read::switch_cpus01.inst         4480                       # Number of bytes read from this memory
system.physmem.bytes_read::switch_cpus01.data      2270976                       # Number of bytes read from this memory
system.physmem.bytes_read::switch_cpus02.inst         5376                       # Number of bytes read from this memory
system.physmem.bytes_read::switch_cpus02.data      1480576                       # Number of bytes read from this memory
system.physmem.bytes_read::switch_cpus03.inst         5376                       # Number of bytes read from this memory
system.physmem.bytes_read::switch_cpus03.data      4309248                       # Number of bytes read from this memory
system.physmem.bytes_read::switch_cpus04.inst         4992                       # Number of bytes read from this memory
system.physmem.bytes_read::switch_cpus04.data      1077504                       # Number of bytes read from this memory
system.physmem.bytes_read::switch_cpus05.inst         5376                       # Number of bytes read from this memory
system.physmem.bytes_read::switch_cpus05.data      1482112                       # Number of bytes read from this memory
system.physmem.bytes_read::switch_cpus06.inst         4864                       # Number of bytes read from this memory
system.physmem.bytes_read::switch_cpus06.data      3672448                       # Number of bytes read from this memory
system.physmem.bytes_read::switch_cpus07.inst         5376                       # Number of bytes read from this memory
system.physmem.bytes_read::switch_cpus07.data      4303360                       # Number of bytes read from this memory
system.physmem.bytes_read::switch_cpus08.inst         4736                       # Number of bytes read from this memory
system.physmem.bytes_read::switch_cpus08.data      2282112                       # Number of bytes read from this memory
system.physmem.bytes_read::switch_cpus09.inst         4608                       # Number of bytes read from this memory
system.physmem.bytes_read::switch_cpus09.data      2268288                       # Number of bytes read from this memory
system.physmem.bytes_read::switch_cpus10.inst         4608                       # Number of bytes read from this memory
system.physmem.bytes_read::switch_cpus10.data      2282368                       # Number of bytes read from this memory
system.physmem.bytes_read::switch_cpus11.inst         4608                       # Number of bytes read from this memory
system.physmem.bytes_read::switch_cpus11.data      2273920                       # Number of bytes read from this memory
system.physmem.bytes_read::switch_cpus12.inst         4992                       # Number of bytes read from this memory
system.physmem.bytes_read::switch_cpus12.data      3666432                       # Number of bytes read from this memory
system.physmem.bytes_read::switch_cpus13.inst         5120                       # Number of bytes read from this memory
system.physmem.bytes_read::switch_cpus13.data      1078016                       # Number of bytes read from this memory
system.physmem.bytes_read::switch_cpus14.inst         5248                       # Number of bytes read from this memory
system.physmem.bytes_read::switch_cpus14.data      1479296                       # Number of bytes read from this memory
system.physmem.bytes_read::switch_cpus15.inst         5376                       # Number of bytes read from this memory
system.physmem.bytes_read::switch_cpus15.data      1481728                       # Number of bytes read from this memory
system.physmem.bytes_read::total             39783040                       # Number of bytes read from this memory
system.physmem.bytes_inst_read::switch_cpus00.inst         5760                       # Number of instructions bytes read from this memory
system.physmem.bytes_inst_read::switch_cpus01.inst         4480                       # Number of instructions bytes read from this memory
system.physmem.bytes_inst_read::switch_cpus02.inst         5376                       # Number of instructions bytes read from this memory
system.physmem.bytes_inst_read::switch_cpus03.inst         5376                       # Number of instructions bytes read from this memory
system.physmem.bytes_inst_read::switch_cpus04.inst         4992                       # Number of instructions bytes read from this memory
system.physmem.bytes_inst_read::switch_cpus05.inst         5376                       # Number of instructions bytes read from this memory
system.physmem.bytes_inst_read::switch_cpus06.inst         4864                       # Number of instructions bytes read from this memory
system.physmem.bytes_inst_read::switch_cpus07.inst         5376                       # Number of instructions bytes read from this memory
system.physmem.bytes_inst_read::switch_cpus08.inst         4736                       # Number of instructions bytes read from this memory
system.physmem.bytes_inst_read::switch_cpus09.inst         4608                       # Number of instructions bytes read from this memory
system.physmem.bytes_inst_read::switch_cpus10.inst         4608                       # Number of instructions bytes read from this memory
system.physmem.bytes_inst_read::switch_cpus11.inst         4608                       # Number of instructions bytes read from this memory
system.physmem.bytes_inst_read::switch_cpus12.inst         4992                       # Number of instructions bytes read from this memory
system.physmem.bytes_inst_read::switch_cpus13.inst         5120                       # Number of instructions bytes read from this memory
system.physmem.bytes_inst_read::switch_cpus14.inst         5248                       # Number of instructions bytes read from this memory
system.physmem.bytes_inst_read::switch_cpus15.inst         5376                       # Number of instructions bytes read from this memory
system.physmem.bytes_inst_read::total           80896                       # Number of instructions bytes read from this memory
system.physmem.bytes_written::writebacks     10266624                       # Number of bytes written to this memory
system.physmem.bytes_written::total          10266624                       # Number of bytes written to this memory
system.physmem.num_reads::switch_cpus00.inst           45                       # Number of read requests responded to by this memory
system.physmem.num_reads::switch_cpus00.data        33545                       # Number of read requests responded to by this memory
system.physmem.num_reads::switch_cpus01.inst           35                       # Number of read requests responded to by this memory
system.physmem.num_reads::switch_cpus01.data        17742                       # Number of read requests responded to by this memory
system.physmem.num_reads::switch_cpus02.inst           42                       # Number of read requests responded to by this memory
system.physmem.num_reads::switch_cpus02.data        11567                       # Number of read requests responded to by this memory
system.physmem.num_reads::switch_cpus03.inst           42                       # Number of read requests responded to by this memory
system.physmem.num_reads::switch_cpus03.data        33666                       # Number of read requests responded to by this memory
system.physmem.num_reads::switch_cpus04.inst           39                       # Number of read requests responded to by this memory
system.physmem.num_reads::switch_cpus04.data         8418                       # Number of read requests responded to by this memory
system.physmem.num_reads::switch_cpus05.inst           42                       # Number of read requests responded to by this memory
system.physmem.num_reads::switch_cpus05.data        11579                       # Number of read requests responded to by this memory
system.physmem.num_reads::switch_cpus06.inst           38                       # Number of read requests responded to by this memory
system.physmem.num_reads::switch_cpus06.data        28691                       # Number of read requests responded to by this memory
system.physmem.num_reads::switch_cpus07.inst           42                       # Number of read requests responded to by this memory
system.physmem.num_reads::switch_cpus07.data        33620                       # Number of read requests responded to by this memory
system.physmem.num_reads::switch_cpus08.inst           37                       # Number of read requests responded to by this memory
system.physmem.num_reads::switch_cpus08.data        17829                       # Number of read requests responded to by this memory
system.physmem.num_reads::switch_cpus09.inst           36                       # Number of read requests responded to by this memory
system.physmem.num_reads::switch_cpus09.data        17721                       # Number of read requests responded to by this memory
system.physmem.num_reads::switch_cpus10.inst           36                       # Number of read requests responded to by this memory
system.physmem.num_reads::switch_cpus10.data        17831                       # Number of read requests responded to by this memory
system.physmem.num_reads::switch_cpus11.inst           36                       # Number of read requests responded to by this memory
system.physmem.num_reads::switch_cpus11.data        17765                       # Number of read requests responded to by this memory
system.physmem.num_reads::switch_cpus12.inst           39                       # Number of read requests responded to by this memory
system.physmem.num_reads::switch_cpus12.data        28644                       # Number of read requests responded to by this memory
system.physmem.num_reads::switch_cpus13.inst           40                       # Number of read requests responded to by this memory
system.physmem.num_reads::switch_cpus13.data         8422                       # Number of read requests responded to by this memory
system.physmem.num_reads::switch_cpus14.inst           41                       # Number of read requests responded to by this memory
system.physmem.num_reads::switch_cpus14.data        11557                       # Number of read requests responded to by this memory
system.physmem.num_reads::switch_cpus15.inst           42                       # Number of read requests responded to by this memory
system.physmem.num_reads::switch_cpus15.data        11576                       # Number of read requests responded to by this memory
system.physmem.num_reads::total                310805                       # Number of read requests responded to by this memory
system.physmem.num_writes::writebacks           80208                       # Number of write requests responded to by this memory
system.physmem.num_writes::functional               0                       # Number of write requests responded to by this memory
system.physmem.num_writes::interrupt                0                       # Number of write requests responded to by this memory
system.physmem.num_writes::switch_cpus00.dtb.walker            0                       # Number of write requests responded to by this memory
system.physmem.num_writes::switch_cpus00.itb.walker            0                       # Number of write requests responded to by this memory
system.physmem.num_writes::switch_cpus00.inst            0                       # Number of write requests responded to by this memory
system.physmem.num_writes::switch_cpus00.data            0                       # Number of write requests responded to by this memory
system.physmem.num_writes::switch_cpus01.dtb.walker            0                       # Number of write requests responded to by this memory
system.physmem.num_writes::switch_cpus01.itb.walker            0                       # Number of write requests responded to by this memory
system.physmem.num_writes::switch_cpus01.inst            0                       # Number of write requests responded to by this memory
system.physmem.num_writes::switch_cpus01.data            0                       # Number of write requests responded to by this memory
system.physmem.num_writes::switch_cpus02.dtb.walker            0                       # Number of write requests responded to by this memory
system.physmem.num_writes::switch_cpus02.itb.walker            0                       # Number of write requests responded to by this memory
system.physmem.num_writes::switch_cpus02.inst            0                       # Number of write requests responded to by this memory
system.physmem.num_writes::switch_cpus02.data            0                       # Number of write requests responded to by this memory
system.physmem.num_writes::switch_cpus03.dtb.walker            0                       # Number of write requests responded to by this memory
system.physmem.num_writes::switch_cpus03.itb.walker            0                       # Number of write requests responded to by this memory
system.physmem.num_writes::switch_cpus03.inst            0                       # Number of write requests responded to by this memory
system.physmem.num_writes::switch_cpus03.data            0                       # Number of write requests responded to by this memory
system.physmem.num_writes::switch_cpus04.dtb.walker            0                       # Number of write requests responded to by this memory
system.physmem.num_writes::switch_cpus04.itb.walker            0                       # Number of write requests responded to by this memory
system.physmem.num_writes::switch_cpus04.inst            0                       # Number of write requests responded to by this memory
system.physmem.num_writes::switch_cpus04.data            0                       # Number of write requests responded to by this memory
system.physmem.num_writes::switch_cpus05.dtb.walker            0                       # Number of write requests responded to by this memory
system.physmem.num_writes::switch_cpus05.itb.walker            0                       # Number of write requests responded to by this memory
system.physmem.num_writes::switch_cpus05.inst            0                       # Number of write requests responded to by this memory
system.physmem.num_writes::switch_cpus05.data            0                       # Number of write requests responded to by this memory
system.physmem.num_writes::switch_cpus06.dtb.walker            0                       # Number of write requests responded to by this memory
system.physmem.num_writes::switch_cpus06.itb.walker            0                       # Number of write requests responded to by this memory
system.physmem.num_writes::switch_cpus06.inst            0                       # Number of write requests responded to by this memory
system.physmem.num_writes::switch_cpus06.data            0                       # Number of write requests responded to by this memory
system.physmem.num_writes::switch_cpus07.dtb.walker            0                       # Number of write requests responded to by this memory
system.physmem.num_writes::switch_cpus07.itb.walker            0                       # Number of write requests responded to by this memory
system.physmem.num_writes::switch_cpus07.inst            0                       # Number of write requests responded to by this memory
system.physmem.num_writes::switch_cpus07.data            0                       # Number of write requests responded to by this memory
system.physmem.num_writes::switch_cpus08.dtb.walker            0                       # Number of write requests responded to by this memory
system.physmem.num_writes::switch_cpus08.itb.walker            0                       # Number of write requests responded to by this memory
system.physmem.num_writes::switch_cpus08.inst            0                       # Number of write requests responded to by this memory
system.physmem.num_writes::switch_cpus08.data            0                       # Number of write requests responded to by this memory
system.physmem.num_writes::switch_cpus09.dtb.walker            0                       # Number of write requests responded to by this memory
system.physmem.num_writes::switch_cpus09.itb.walker            0                       # Number of write requests responded to by this memory
system.physmem.num_writes::switch_cpus09.inst            0                       # Number of write requests responded to by this memory
system.physmem.num_writes::switch_cpus09.data            0                       # Number of write requests responded to by this memory
system.physmem.num_writes::switch_cpus10.dtb.walker            0                       # Number of write requests responded to by this memory
system.physmem.num_writes::switch_cpus10.itb.walker            0                       # Number of write requests responded to by this memory
system.physmem.num_writes::switch_cpus10.inst            0                       # Number of write requests responded to by this memory
system.physmem.num_writes::switch_cpus10.data            0                       # Number of write requests responded to by this memory
system.physmem.num_writes::switch_cpus11.dtb.walker            0                       # Number of write requests responded to by this memory
system.physmem.num_writes::switch_cpus11.itb.walker            0                       # Number of write requests responded to by this memory
system.physmem.num_writes::switch_cpus11.inst            0                       # Number of write requests responded to by this memory
system.physmem.num_writes::switch_cpus11.data            0                       # Number of write requests responded to by this memory
system.physmem.num_writes::switch_cpus12.dtb.walker            0                       # Number of write requests responded to by this memory
system.physmem.num_writes::switch_cpus12.itb.walker            0                       # Number of write requests responded to by this memory
system.physmem.num_writes::switch_cpus12.inst            0                       # Number of write requests responded to by this memory
system.physmem.num_writes::switch_cpus12.data            0                       # Number of write requests responded to by this memory
system.physmem.num_writes::switch_cpus13.dtb.walker            0                       # Number of write requests responded to by this memory
system.physmem.num_writes::switch_cpus13.itb.walker            0                       # Number of write requests responded to by this memory
system.physmem.num_writes::switch_cpus13.inst            0                       # Number of write requests responded to by this memory
system.physmem.num_writes::switch_cpus13.data            0                       # Number of write requests responded to by this memory
system.physmem.num_writes::switch_cpus14.dtb.walker            0                       # Number of write requests responded to by this memory
system.physmem.num_writes::switch_cpus14.itb.walker            0                       # Number of write requests responded to by this memory
system.physmem.num_writes::switch_cpus14.inst            0                       # Number of write requests responded to by this memory
system.physmem.num_writes::switch_cpus14.data            0                       # Number of write requests responded to by this memory
system.physmem.num_writes::switch_cpus15.dtb.walker            0                       # Number of write requests responded to by this memory
system.physmem.num_writes::switch_cpus15.itb.walker            0                       # Number of write requests responded to by this memory
system.physmem.num_writes::switch_cpus15.inst            0                       # Number of write requests responded to by this memory
system.physmem.num_writes::switch_cpus15.data            0                       # Number of write requests responded to by this memory
system.physmem.num_writes::cpu00.dtb.walker            0                       # Number of write requests responded to by this memory
system.physmem.num_writes::cpu00.itb.walker            0                       # Number of write requests responded to by this memory
system.physmem.num_writes::cpu00.inst               0                       # Number of write requests responded to by this memory
system.physmem.num_writes::cpu00.data               0                       # Number of write requests responded to by this memory
system.physmem.num_writes::cpu01.dtb.walker            0                       # Number of write requests responded to by this memory
system.physmem.num_writes::cpu01.itb.walker            0                       # Number of write requests responded to by this memory
system.physmem.num_writes::cpu01.inst               0                       # Number of write requests responded to by this memory
system.physmem.num_writes::cpu01.data               0                       # Number of write requests responded to by this memory
system.physmem.num_writes::cpu02.dtb.walker            0                       # Number of write requests responded to by this memory
system.physmem.num_writes::cpu02.itb.walker            0                       # Number of write requests responded to by this memory
system.physmem.num_writes::cpu02.inst               0                       # Number of write requests responded to by this memory
system.physmem.num_writes::cpu02.data               0                       # Number of write requests responded to by this memory
system.physmem.num_writes::cpu03.dtb.walker            0                       # Number of write requests responded to by this memory
system.physmem.num_writes::cpu03.itb.walker            0                       # Number of write requests responded to by this memory
system.physmem.num_writes::cpu03.inst               0                       # Number of write requests responded to by this memory
system.physmem.num_writes::cpu03.data               0                       # Number of write requests responded to by this memory
system.physmem.num_writes::cpu04.dtb.walker            0                       # Number of write requests responded to by this memory
system.physmem.num_writes::cpu04.itb.walker            0                       # Number of write requests responded to by this memory
system.physmem.num_writes::cpu04.inst               0                       # Number of write requests responded to by this memory
system.physmem.num_writes::cpu04.data               0                       # Number of write requests responded to by this memory
system.physmem.num_writes::cpu05.dtb.walker            0                       # Number of write requests responded to by this memory
system.physmem.num_writes::cpu05.itb.walker            0                       # Number of write requests responded to by this memory
system.physmem.num_writes::cpu05.inst               0                       # Number of write requests responded to by this memory
system.physmem.num_writes::cpu05.data               0                       # Number of write requests responded to by this memory
system.physmem.num_writes::cpu06.dtb.walker            0                       # Number of write requests responded to by this memory
system.physmem.num_writes::cpu06.itb.walker            0                       # Number of write requests responded to by this memory
system.physmem.num_writes::cpu06.inst               0                       # Number of write requests responded to by this memory
system.physmem.num_writes::cpu06.data               0                       # Number of write requests responded to by this memory
system.physmem.num_writes::cpu07.dtb.walker            0                       # Number of write requests responded to by this memory
system.physmem.num_writes::cpu07.itb.walker            0                       # Number of write requests responded to by this memory
system.physmem.num_writes::cpu07.inst               0                       # Number of write requests responded to by this memory
system.physmem.num_writes::cpu07.data               0                       # Number of write requests responded to by this memory
system.physmem.num_writes::cpu08.dtb.walker            0                       # Number of write requests responded to by this memory
system.physmem.num_writes::cpu08.itb.walker            0                       # Number of write requests responded to by this memory
system.physmem.num_writes::cpu08.inst               0                       # Number of write requests responded to by this memory
system.physmem.num_writes::cpu08.data               0                       # Number of write requests responded to by this memory
system.physmem.num_writes::cpu09.dtb.walker            0                       # Number of write requests responded to by this memory
system.physmem.num_writes::cpu09.itb.walker            0                       # Number of write requests responded to by this memory
system.physmem.num_writes::cpu09.inst               0                       # Number of write requests responded to by this memory
system.physmem.num_writes::cpu09.data               0                       # Number of write requests responded to by this memory
system.physmem.num_writes::cpu10.dtb.walker            0                       # Number of write requests responded to by this memory
system.physmem.num_writes::cpu10.itb.walker            0                       # Number of write requests responded to by this memory
system.physmem.num_writes::cpu10.inst               0                       # Number of write requests responded to by this memory
system.physmem.num_writes::cpu10.data               0                       # Number of write requests responded to by this memory
system.physmem.num_writes::cpu11.dtb.walker            0                       # Number of write requests responded to by this memory
system.physmem.num_writes::cpu11.itb.walker            0                       # Number of write requests responded to by this memory
system.physmem.num_writes::cpu11.inst               0                       # Number of write requests responded to by this memory
system.physmem.num_writes::cpu11.data               0                       # Number of write requests responded to by this memory
system.physmem.num_writes::cpu12.dtb.walker            0                       # Number of write requests responded to by this memory
system.physmem.num_writes::cpu12.itb.walker            0                       # Number of write requests responded to by this memory
system.physmem.num_writes::cpu12.inst               0                       # Number of write requests responded to by this memory
system.physmem.num_writes::cpu12.data               0                       # Number of write requests responded to by this memory
system.physmem.num_writes::cpu13.dtb.walker            0                       # Number of write requests responded to by this memory
system.physmem.num_writes::cpu13.itb.walker            0                       # Number of write requests responded to by this memory
system.physmem.num_writes::cpu13.inst               0                       # Number of write requests responded to by this memory
system.physmem.num_writes::cpu13.data               0                       # Number of write requests responded to by this memory
system.physmem.num_writes::cpu14.dtb.walker            0                       # Number of write requests responded to by this memory
system.physmem.num_writes::cpu14.itb.walker            0                       # Number of write requests responded to by this memory
system.physmem.num_writes::cpu14.inst               0                       # Number of write requests responded to by this memory
system.physmem.num_writes::cpu14.data               0                       # Number of write requests responded to by this memory
system.physmem.num_writes::cpu15.dtb.walker            0                       # Number of write requests responded to by this memory
system.physmem.num_writes::cpu15.itb.walker            0                       # Number of write requests responded to by this memory
system.physmem.num_writes::cpu15.inst               0                       # Number of write requests responded to by this memory
system.physmem.num_writes::cpu15.data               0                       # Number of write requests responded to by this memory
system.physmem.num_writes::total                80208                       # Number of write requests responded to by this memory
system.physmem.bw_read::switch_cpus00.inst        52972                       # Total read bandwidth from this memory (bytes/s)
system.physmem.bw_read::switch_cpus00.data     39487322                       # Total read bandwidth from this memory (bytes/s)
system.physmem.bw_read::switch_cpus01.inst        41200                       # Total read bandwidth from this memory (bytes/s)
system.physmem.bw_read::switch_cpus01.data     20884903                       # Total read bandwidth from this memory (bytes/s)
system.physmem.bw_read::switch_cpus02.inst        49440                       # Total read bandwidth from this memory (bytes/s)
system.physmem.bw_read::switch_cpus02.data     13616034                       # Total read bandwidth from this memory (bytes/s)
system.physmem.bw_read::switch_cpus03.inst        49440                       # Total read bandwidth from this memory (bytes/s)
system.physmem.bw_read::switch_cpus03.data     39629757                       # Total read bandwidth from this memory (bytes/s)
system.physmem.bw_read::switch_cpus04.inst        45909                       # Total read bandwidth from this memory (bytes/s)
system.physmem.bw_read::switch_cpus04.data      9909205                       # Total read bandwidth from this memory (bytes/s)
system.physmem.bw_read::switch_cpus05.inst        49440                       # Total read bandwidth from this memory (bytes/s)
system.physmem.bw_read::switch_cpus05.data     13630160                       # Total read bandwidth from this memory (bytes/s)
system.physmem.bw_read::switch_cpus06.inst        44732                       # Total read bandwidth from this memory (bytes/s)
system.physmem.bw_read::switch_cpus06.data     33773461                       # Total read bandwidth from this memory (bytes/s)
system.physmem.bw_read::switch_cpus07.inst        49440                       # Total read bandwidth from this memory (bytes/s)
system.physmem.bw_read::switch_cpus07.data     39575608                       # Total read bandwidth from this memory (bytes/s)
system.physmem.bw_read::switch_cpus08.inst        43554                       # Total read bandwidth from this memory (bytes/s)
system.physmem.bw_read::switch_cpus08.data     20987315                       # Total read bandwidth from this memory (bytes/s)
system.physmem.bw_read::switch_cpus09.inst        42377                       # Total read bandwidth from this memory (bytes/s)
system.physmem.bw_read::switch_cpus09.data     20860183                       # Total read bandwidth from this memory (bytes/s)
system.physmem.bw_read::switch_cpus10.inst        42377                       # Total read bandwidth from this memory (bytes/s)
system.physmem.bw_read::switch_cpus10.data     20989669                       # Total read bandwidth from this memory (bytes/s)
system.physmem.bw_read::switch_cpus11.inst        42377                       # Total read bandwidth from this memory (bytes/s)
system.physmem.bw_read::switch_cpus11.data     20911977                       # Total read bandwidth from this memory (bytes/s)
system.physmem.bw_read::switch_cpus12.inst        45909                       # Total read bandwidth from this memory (bytes/s)
system.physmem.bw_read::switch_cpus12.data     33718135                       # Total read bandwidth from this memory (bytes/s)
system.physmem.bw_read::switch_cpus13.inst        47086                       # Total read bandwidth from this memory (bytes/s)
system.physmem.bw_read::switch_cpus13.data      9913913                       # Total read bandwidth from this memory (bytes/s)
system.physmem.bw_read::switch_cpus14.inst        48263                       # Total read bandwidth from this memory (bytes/s)
system.physmem.bw_read::switch_cpus14.data     13604262                       # Total read bandwidth from this memory (bytes/s)
system.physmem.bw_read::switch_cpus15.inst        49440                       # Total read bandwidth from this memory (bytes/s)
system.physmem.bw_read::switch_cpus15.data     13626628                       # Total read bandwidth from this memory (bytes/s)
system.physmem.bw_read::total               365862488                       # Total read bandwidth from this memory (bytes/s)
system.physmem.bw_inst_read::switch_cpus00.inst        52972                       # Instruction read bandwidth from this memory (bytes/s)
system.physmem.bw_inst_read::switch_cpus01.inst        41200                       # Instruction read bandwidth from this memory (bytes/s)
system.physmem.bw_inst_read::switch_cpus02.inst        49440                       # Instruction read bandwidth from this memory (bytes/s)
system.physmem.bw_inst_read::switch_cpus03.inst        49440                       # Instruction read bandwidth from this memory (bytes/s)
system.physmem.bw_inst_read::switch_cpus04.inst        45909                       # Instruction read bandwidth from this memory (bytes/s)
system.physmem.bw_inst_read::switch_cpus05.inst        49440                       # Instruction read bandwidth from this memory (bytes/s)
system.physmem.bw_inst_read::switch_cpus06.inst        44732                       # Instruction read bandwidth from this memory (bytes/s)
system.physmem.bw_inst_read::switch_cpus07.inst        49440                       # Instruction read bandwidth from this memory (bytes/s)
system.physmem.bw_inst_read::switch_cpus08.inst        43554                       # Instruction read bandwidth from this memory (bytes/s)
system.physmem.bw_inst_read::switch_cpus09.inst        42377                       # Instruction read bandwidth from this memory (bytes/s)
system.physmem.bw_inst_read::switch_cpus10.inst        42377                       # Instruction read bandwidth from this memory (bytes/s)
system.physmem.bw_inst_read::switch_cpus11.inst        42377                       # Instruction read bandwidth from this memory (bytes/s)
system.physmem.bw_inst_read::switch_cpus12.inst        45909                       # Instruction read bandwidth from this memory (bytes/s)
system.physmem.bw_inst_read::switch_cpus13.inst        47086                       # Instruction read bandwidth from this memory (bytes/s)
system.physmem.bw_inst_read::switch_cpus14.inst        48263                       # Instruction read bandwidth from this memory (bytes/s)
system.physmem.bw_inst_read::switch_cpus15.inst        49440                       # Instruction read bandwidth from this memory (bytes/s)
system.physmem.bw_inst_read::total             743956                       # Instruction read bandwidth from this memory (bytes/s)
system.physmem.bw_write::writebacks          94416430                       # Write bandwidth from this memory (bytes/s)
system.physmem.bw_write::total               94416430                       # Write bandwidth from this memory (bytes/s)
system.physmem.bw_total::writebacks          94416430                       # Total bandwidth to/from this memory (bytes/s)
system.physmem.bw_total::switch_cpus00.inst        52972                       # Total bandwidth to/from this memory (bytes/s)
system.physmem.bw_total::switch_cpus00.data     39487322                       # Total bandwidth to/from this memory (bytes/s)
system.physmem.bw_total::switch_cpus01.inst        41200                       # Total bandwidth to/from this memory (bytes/s)
system.physmem.bw_total::switch_cpus01.data     20884903                       # Total bandwidth to/from this memory (bytes/s)
system.physmem.bw_total::switch_cpus02.inst        49440                       # Total bandwidth to/from this memory (bytes/s)
system.physmem.bw_total::switch_cpus02.data     13616034                       # Total bandwidth to/from this memory (bytes/s)
system.physmem.bw_total::switch_cpus03.inst        49440                       # Total bandwidth to/from this memory (bytes/s)
system.physmem.bw_total::switch_cpus03.data     39629757                       # Total bandwidth to/from this memory (bytes/s)
system.physmem.bw_total::switch_cpus04.inst        45909                       # Total bandwidth to/from this memory (bytes/s)
system.physmem.bw_total::switch_cpus04.data      9909205                       # Total bandwidth to/from this memory (bytes/s)
system.physmem.bw_total::switch_cpus05.inst        49440                       # Total bandwidth to/from this memory (bytes/s)
system.physmem.bw_total::switch_cpus05.data     13630160                       # Total bandwidth to/from this memory (bytes/s)
system.physmem.bw_total::switch_cpus06.inst        44732                       # Total bandwidth to/from this memory (bytes/s)
system.physmem.bw_total::switch_cpus06.data     33773461                       # Total bandwidth to/from this memory (bytes/s)
system.physmem.bw_total::switch_cpus07.inst        49440                       # Total bandwidth to/from this memory (bytes/s)
system.physmem.bw_total::switch_cpus07.data     39575608                       # Total bandwidth to/from this memory (bytes/s)
system.physmem.bw_total::switch_cpus08.inst        43554                       # Total bandwidth to/from this memory (bytes/s)
system.physmem.bw_total::switch_cpus08.data     20987315                       # Total bandwidth to/from this memory (bytes/s)
system.physmem.bw_total::switch_cpus09.inst        42377                       # Total bandwidth to/from this memory (bytes/s)
system.physmem.bw_total::switch_cpus09.data     20860183                       # Total bandwidth to/from this memory (bytes/s)
system.physmem.bw_total::switch_cpus10.inst        42377                       # Total bandwidth to/from this memory (bytes/s)
system.physmem.bw_total::switch_cpus10.data     20989669                       # Total bandwidth to/from this memory (bytes/s)
system.physmem.bw_total::switch_cpus11.inst        42377                       # Total bandwidth to/from this memory (bytes/s)
system.physmem.bw_total::switch_cpus11.data     20911977                       # Total bandwidth to/from this memory (bytes/s)
system.physmem.bw_total::switch_cpus12.inst        45909                       # Total bandwidth to/from this memory (bytes/s)
system.physmem.bw_total::switch_cpus12.data     33718135                       # Total bandwidth to/from this memory (bytes/s)
system.physmem.bw_total::switch_cpus13.inst        47086                       # Total bandwidth to/from this memory (bytes/s)
system.physmem.bw_total::switch_cpus13.data      9913913                       # Total bandwidth to/from this memory (bytes/s)
system.physmem.bw_total::switch_cpus14.inst        48263                       # Total bandwidth to/from this memory (bytes/s)
system.physmem.bw_total::switch_cpus14.data     13604262                       # Total bandwidth to/from this memory (bytes/s)
system.physmem.bw_total::switch_cpus15.inst        49440                       # Total bandwidth to/from this memory (bytes/s)
system.physmem.bw_total::switch_cpus15.data     13626628                       # Total bandwidth to/from this memory (bytes/s)
system.physmem.bw_total::total              460278917                       # Total bandwidth to/from this memory (bytes/s)
system.switch_cpus00.dtb.inst_hits                  0                       # ITB inst hits
system.switch_cpus00.dtb.inst_misses                0                       # ITB inst misses
system.switch_cpus00.dtb.read_hits                  0                       # DTB read hits
system.switch_cpus00.dtb.read_misses                0                       # DTB read misses
system.switch_cpus00.dtb.write_hits                 0                       # DTB write hits
system.switch_cpus00.dtb.write_misses               0                       # DTB write misses
system.switch_cpus00.dtb.flush_tlb                  0                       # Number of times complete TLB was flushed
system.switch_cpus00.dtb.flush_tlb_mva              0                       # Number of times TLB was flushed by MVA
system.switch_cpus00.dtb.flush_tlb_mva_asid            0                       # Number of times TLB was flushed by MVA & ASID
system.switch_cpus00.dtb.flush_tlb_asid             0                       # Number of times TLB was flushed by ASID
system.switch_cpus00.dtb.flush_entries              0                       # Number of entries that have been flushed from TLB
system.switch_cpus00.dtb.align_faults               0                       # Number of TLB faults due to alignment restrictions
system.switch_cpus00.dtb.prefetch_faults            0                       # Number of TLB faults due to prefetch
system.switch_cpus00.dtb.domain_faults              0                       # Number of TLB faults due to domain restrictions
system.switch_cpus00.dtb.perms_faults               0                       # Number of TLB faults due to permissions restrictions
system.switch_cpus00.dtb.read_accesses              0                       # DTB read accesses
system.switch_cpus00.dtb.write_accesses             0                       # DTB write accesses
system.switch_cpus00.dtb.inst_accesses              0                       # ITB inst accesses
system.switch_cpus00.dtb.hits                       0                       # DTB hits
system.switch_cpus00.dtb.misses                     0                       # DTB misses
system.switch_cpus00.dtb.accesses                   0                       # DTB accesses
system.switch_cpus00.itb.inst_hits                  0                       # ITB inst hits
system.switch_cpus00.itb.inst_misses                0                       # ITB inst misses
system.switch_cpus00.itb.read_hits                  0                       # DTB read hits
system.switch_cpus00.itb.read_misses                0                       # DTB read misses
system.switch_cpus00.itb.write_hits                 0                       # DTB write hits
system.switch_cpus00.itb.write_misses               0                       # DTB write misses
system.switch_cpus00.itb.flush_tlb                  0                       # Number of times complete TLB was flushed
system.switch_cpus00.itb.flush_tlb_mva              0                       # Number of times TLB was flushed by MVA
system.switch_cpus00.itb.flush_tlb_mva_asid            0                       # Number of times TLB was flushed by MVA & ASID
system.switch_cpus00.itb.flush_tlb_asid             0                       # Number of times TLB was flushed by ASID
system.switch_cpus00.itb.flush_entries              0                       # Number of entries that have been flushed from TLB
system.switch_cpus00.itb.align_faults               0                       # Number of TLB faults due to alignment restrictions
system.switch_cpus00.itb.prefetch_faults            0                       # Number of TLB faults due to prefetch
system.switch_cpus00.itb.domain_faults              0                       # Number of TLB faults due to domain restrictions
system.switch_cpus00.itb.perms_faults               0                       # Number of TLB faults due to permissions restrictions
system.switch_cpus00.itb.read_accesses              0                       # DTB read accesses
system.switch_cpus00.itb.write_accesses             0                       # DTB write accesses
system.switch_cpus00.itb.inst_accesses              0                       # ITB inst accesses
system.switch_cpus00.itb.hits                       0                       # DTB hits
system.switch_cpus00.itb.misses                     0                       # DTB misses
system.switch_cpus00.itb.accesses                   0                       # DTB accesses
system.cpu00.workload.num_syscalls                 23                       # Number of system calls
system.switch_cpus00.numCycles              260761836                       # number of cpu cycles simulated
system.switch_cpus00.numWorkItemsStarted            0                       # number of work items this cpu started
system.switch_cpus00.numWorkItemsCompleted            0                       # number of work items this cpu completed
system.switch_cpus00.BPredUnit.lookups       17568169                       # Number of BP lookups
system.switch_cpus00.BPredUnit.condPredicted     15852714                       # Number of conditional branches predicted
system.switch_cpus00.BPredUnit.condIncorrect       924217                       # Number of conditional branches incorrect
system.switch_cpus00.BPredUnit.BTBLookups      6624147                       # Number of BTB lookups
system.switch_cpus00.BPredUnit.BTBHits        6295880                       # Number of BTB hits
system.switch_cpus00.BPredUnit.BTBCorrect            0                       # Number of correct BTB predictions (this stat may not work properly.
system.switch_cpus00.BPredUnit.usedRAS         971584                       # Number of times the RAS was used to get a target.
system.switch_cpus00.BPredUnit.RASInCorrect        41096                       # Number of incorrect RAS predictions.
system.switch_cpus00.fetch.icacheStallCycles    186558848                       # Number of cycles fetch is stalled on an Icache miss
system.switch_cpus00.fetch.Insts            110386220                       # Number of instructions fetch has processed
system.switch_cpus00.fetch.Branches          17568169                       # Number of branches that fetch encountered
system.switch_cpus00.fetch.predictedBranches      7267464                       # Number of branches that fetch has predicted taken
system.switch_cpus00.fetch.Cycles            21842473                       # Number of cycles fetch has run and was not squashing or blocked
system.switch_cpus00.fetch.SquashCycles       2899442                       # Number of cycles fetch has spent squashing
system.switch_cpus00.fetch.BlockedCycles     26065997                       # Number of cycles fetch has spent blocked
system.switch_cpus00.fetch.MiscStallCycles            1                       # Number of cycles fetch has spent waiting on interrupts, or bad addresses, or out of MSHRs
system.switch_cpus00.fetch.IcacheWaitRetryStallCycles           11                       # Number of stall cycles due to full MSHR
system.switch_cpus00.fetch.CacheLines        10704590                       # Number of cache lines fetched
system.switch_cpus00.fetch.IcacheSquashes       927550                       # Number of outstanding Icache misses that were squashed
system.switch_cpus00.fetch.rateDist::samples    236419339                       # Number of instructions fetched each cycle (Total)
system.switch_cpus00.fetch.rateDist::mean     0.547731                       # Number of instructions fetched each cycle (Total)
system.switch_cpus00.fetch.rateDist::stdev     1.847308                       # Number of instructions fetched each cycle (Total)
system.switch_cpus00.fetch.rateDist::underflows            0      0.00%      0.00% # Number of instructions fetched each cycle (Total)
system.switch_cpus00.fetch.rateDist::0      214576866     90.76%     90.76% # Number of instructions fetched each cycle (Total)
system.switch_cpus00.fetch.rateDist::1         780137      0.33%     91.09% # Number of instructions fetched each cycle (Total)
system.switch_cpus00.fetch.rateDist::2        1595025      0.67%     91.77% # Number of instructions fetched each cycle (Total)
system.switch_cpus00.fetch.rateDist::3         680126      0.29%     92.05% # Number of instructions fetched each cycle (Total)
system.switch_cpus00.fetch.rateDist::4        3629327      1.54%     93.59% # Number of instructions fetched each cycle (Total)
system.switch_cpus00.fetch.rateDist::5        3241508      1.37%     94.96% # Number of instructions fetched each cycle (Total)
system.switch_cpus00.fetch.rateDist::6         632565      0.27%     95.23% # Number of instructions fetched each cycle (Total)
system.switch_cpus00.fetch.rateDist::7        1306838      0.55%     95.78% # Number of instructions fetched each cycle (Total)
system.switch_cpus00.fetch.rateDist::8        9976947      4.22%    100.00% # Number of instructions fetched each cycle (Total)
system.switch_cpus00.fetch.rateDist::overflows            0      0.00%    100.00% # Number of instructions fetched each cycle (Total)
system.switch_cpus00.fetch.rateDist::min_value            0                       # Number of instructions fetched each cycle (Total)
system.switch_cpus00.fetch.rateDist::max_value            8                       # Number of instructions fetched each cycle (Total)
system.switch_cpus00.fetch.rateDist::total    236419339                       # Number of instructions fetched each cycle (Total)
system.switch_cpus00.fetch.branchRate        0.067372                       # Number of branch fetches per cycle
system.switch_cpus00.fetch.rate              0.423322                       # Number of inst fetches per cycle
system.switch_cpus00.decode.IdleCycles      184661647                       # Number of cycles decode is idle
system.switch_cpus00.decode.BlockedCycles     27975079                       # Number of cycles decode is blocked
system.switch_cpus00.decode.RunCycles        21761645                       # Number of cycles decode is running
system.switch_cpus00.decode.UnblockCycles        69442                       # Number of cycles decode is unblocking
system.switch_cpus00.decode.SquashCycles      1951520                       # Number of cycles decode is squashing
system.switch_cpus00.decode.BranchResolved      1541118                       # Number of times decode resolved a branch
system.switch_cpus00.decode.BranchMispred          490                       # Number of times decode detected a branch misprediction
system.switch_cpus00.decode.DecodedInsts    129431047                       # Number of instructions handled by decode
system.switch_cpus00.decode.SquashedInsts         2733                       # Number of squashed instructions handled by decode
system.switch_cpus00.rename.SquashCycles      1951520                       # Number of cycles rename is squashing
system.switch_cpus00.rename.IdleCycles      184905675                       # Number of cycles rename is idle
system.switch_cpus00.rename.BlockCycles      25995877                       # Number of cycles rename is blocking
system.switch_cpus00.rename.serializeStallCycles      1137314                       # count of cycles rename stalled for serializing inst
system.switch_cpus00.rename.RunCycles        21614422                       # Number of cycles rename is running
system.switch_cpus00.rename.UnblockCycles       814525                       # Number of cycles rename is unblocking
system.switch_cpus00.rename.RenamedInsts    129359327                       # Number of instructions processed by rename
system.switch_cpus00.rename.ROBFullEvents          699                       # Number of times rename has blocked due to ROB full
system.switch_cpus00.rename.IQFullEvents       413638                       # Number of times rename has blocked due to IQ full
system.switch_cpus00.rename.LSQFullEvents       266216                       # Number of times rename has blocked due to LSQ full
system.switch_cpus00.rename.FullRegisterEvents        13642                       # Number of times there has been no free registers
system.switch_cpus00.rename.RenamedOperands    151875339                       # Number of destination operands rename has renamed
system.switch_cpus00.rename.RenameLookups    609234541                       # Number of register rename lookups that rename has made
system.switch_cpus00.rename.int_rename_lookups    609234541                       # Number of integer rename lookups
system.switch_cpus00.rename.CommittedMaps    134722849                       # Number of HB maps that are committed
system.switch_cpus00.rename.UndoneMaps       17152479                       # Number of HB maps that are undone due to squashing
system.switch_cpus00.rename.serializingInsts        15429                       # count of serializing insts renamed
system.switch_cpus00.rename.tempSerializingInsts         7995                       # count of temporary serializing insts renamed
system.switch_cpus00.rename.skidInsts         1875428                       # count of insts added to the skid buffer
system.switch_cpus00.memDep0.insertedLoads     30536236                       # Number of loads inserted to the mem dependence unit.
system.switch_cpus00.memDep0.insertedStores     15443260                       # Number of stores inserted to the mem dependence unit.
system.switch_cpus00.memDep0.conflictingLoads       140304                       # Number of conflicting loads.
system.switch_cpus00.memDep0.conflictingStores       747199                       # Number of conflicting stores.
system.switch_cpus00.iq.iqInstsAdded        129113676                       # Number of instructions added to the IQ (excludes non-spec)
system.switch_cpus00.iq.iqNonSpecInstsAdded        15472                       # Number of non-speculative instructions added to the IQ
system.switch_cpus00.iq.iqInstsIssued       124144319                       # Number of instructions issued
system.switch_cpus00.iq.iqSquashedInstsIssued        71623                       # Number of squashed instructions issued
system.switch_cpus00.iq.iqSquashedInstsExamined      9933361                       # Number of squashed instructions iterated over during squash; mainly for profiling
system.switch_cpus00.iq.iqSquashedOperandsExamined     23753510                       # Number of squashed operands that are examined and possibly removed from graph
system.switch_cpus00.iq.iqSquashedNonSpecRemoved          492                       # Number of squashed non-spec instructions that were removed
system.switch_cpus00.iq.issued_per_cycle::samples    236419339                       # Number of insts issued each cycle
system.switch_cpus00.iq.issued_per_cycle::mean     0.525102                       # Number of insts issued each cycle
system.switch_cpus00.iq.issued_per_cycle::stdev     1.315639                       # Number of insts issued each cycle
system.switch_cpus00.iq.issued_per_cycle::underflows            0      0.00%      0.00% # Number of insts issued each cycle
system.switch_cpus00.iq.issued_per_cycle::0    191818396     81.13%     81.13% # Number of insts issued each cycle
system.switch_cpus00.iq.issued_per_cycle::1     13636885      5.77%     86.90% # Number of insts issued each cycle
system.switch_cpus00.iq.issued_per_cycle::2     11025301      4.66%     91.57% # Number of insts issued each cycle
system.switch_cpus00.iq.issued_per_cycle::3      4746688      2.01%     93.57% # Number of insts issued each cycle
system.switch_cpus00.iq.issued_per_cycle::4      5934482      2.51%     96.08% # Number of insts issued each cycle
system.switch_cpus00.iq.issued_per_cycle::5      5637904      2.38%     98.47% # Number of insts issued each cycle
system.switch_cpus00.iq.issued_per_cycle::6      3206545      1.36%     99.83% # Number of insts issued each cycle
system.switch_cpus00.iq.issued_per_cycle::7       255054      0.11%     99.93% # Number of insts issued each cycle
system.switch_cpus00.iq.issued_per_cycle::8       158084      0.07%    100.00% # Number of insts issued each cycle
system.switch_cpus00.iq.issued_per_cycle::overflows            0      0.00%    100.00% # Number of insts issued each cycle
system.switch_cpus00.iq.issued_per_cycle::min_value            0                       # Number of insts issued each cycle
system.switch_cpus00.iq.issued_per_cycle::max_value            8                       # Number of insts issued each cycle
system.switch_cpus00.iq.issued_per_cycle::total    236419339                       # Number of insts issued each cycle
system.switch_cpus00.iq.fu_full::No_OpClass            0      0.00%      0.00% # attempts to use FU when none available
system.switch_cpus00.iq.fu_full::IntAlu        312523     11.28%     11.28% # attempts to use FU when none available
system.switch_cpus00.iq.fu_full::IntMult            0      0.00%     11.28% # attempts to use FU when none available
system.switch_cpus00.iq.fu_full::IntDiv             0      0.00%     11.28% # attempts to use FU when none available
system.switch_cpus00.iq.fu_full::FloatAdd            0      0.00%     11.28% # attempts to use FU when none available
system.switch_cpus00.iq.fu_full::FloatCmp            0      0.00%     11.28% # attempts to use FU when none available
system.switch_cpus00.iq.fu_full::FloatCvt            0      0.00%     11.28% # attempts to use FU when none available
system.switch_cpus00.iq.fu_full::FloatMult            0      0.00%     11.28% # attempts to use FU when none available
system.switch_cpus00.iq.fu_full::FloatDiv            0      0.00%     11.28% # attempts to use FU when none available
system.switch_cpus00.iq.fu_full::FloatSqrt            0      0.00%     11.28% # attempts to use FU when none available
system.switch_cpus00.iq.fu_full::SimdAdd            0      0.00%     11.28% # attempts to use FU when none available
system.switch_cpus00.iq.fu_full::SimdAddAcc            0      0.00%     11.28% # attempts to use FU when none available
system.switch_cpus00.iq.fu_full::SimdAlu            0      0.00%     11.28% # attempts to use FU when none available
system.switch_cpus00.iq.fu_full::SimdCmp            0      0.00%     11.28% # attempts to use FU when none available
system.switch_cpus00.iq.fu_full::SimdCvt            0      0.00%     11.28% # attempts to use FU when none available
system.switch_cpus00.iq.fu_full::SimdMisc            0      0.00%     11.28% # attempts to use FU when none available
system.switch_cpus00.iq.fu_full::SimdMult            0      0.00%     11.28% # attempts to use FU when none available
system.switch_cpus00.iq.fu_full::SimdMultAcc            0      0.00%     11.28% # attempts to use FU when none available
system.switch_cpus00.iq.fu_full::SimdShift            0      0.00%     11.28% # attempts to use FU when none available
system.switch_cpus00.iq.fu_full::SimdShiftAcc            0      0.00%     11.28% # attempts to use FU when none available
system.switch_cpus00.iq.fu_full::SimdSqrt            0      0.00%     11.28% # attempts to use FU when none available
system.switch_cpus00.iq.fu_full::SimdFloatAdd            0      0.00%     11.28% # attempts to use FU when none available
system.switch_cpus00.iq.fu_full::SimdFloatAlu            0      0.00%     11.28% # attempts to use FU when none available
system.switch_cpus00.iq.fu_full::SimdFloatCmp            0      0.00%     11.28% # attempts to use FU when none available
system.switch_cpus00.iq.fu_full::SimdFloatCvt            0      0.00%     11.28% # attempts to use FU when none available
system.switch_cpus00.iq.fu_full::SimdFloatDiv            0      0.00%     11.28% # attempts to use FU when none available
system.switch_cpus00.iq.fu_full::SimdFloatMisc            0      0.00%     11.28% # attempts to use FU when none available
system.switch_cpus00.iq.fu_full::SimdFloatMult            0      0.00%     11.28% # attempts to use FU when none available
system.switch_cpus00.iq.fu_full::SimdFloatMultAcc            0      0.00%     11.28% # attempts to use FU when none available
system.switch_cpus00.iq.fu_full::SimdFloatSqrt            0      0.00%     11.28% # attempts to use FU when none available
system.switch_cpus00.iq.fu_full::MemRead      2388115     86.20%     97.48% # attempts to use FU when none available
system.switch_cpus00.iq.fu_full::MemWrite        69729      2.52%    100.00% # attempts to use FU when none available
system.switch_cpus00.iq.fu_full::IprAccess            0      0.00%    100.00% # attempts to use FU when none available
system.switch_cpus00.iq.fu_full::InstPrefetch            0      0.00%    100.00% # attempts to use FU when none available
system.switch_cpus00.iq.FU_type_0::No_OpClass            0      0.00%      0.00% # Type of FU issued
system.switch_cpus00.iq.FU_type_0::IntAlu     77876941     62.73%     62.73% # Type of FU issued
system.switch_cpus00.iq.FU_type_0::IntMult      1082108      0.87%     63.60% # Type of FU issued
system.switch_cpus00.iq.FU_type_0::IntDiv            0      0.00%     63.60% # Type of FU issued
system.switch_cpus00.iq.FU_type_0::FloatAdd            0      0.00%     63.60% # Type of FU issued
system.switch_cpus00.iq.FU_type_0::FloatCmp            0      0.00%     63.60% # Type of FU issued
system.switch_cpus00.iq.FU_type_0::FloatCvt            0      0.00%     63.60% # Type of FU issued
system.switch_cpus00.iq.FU_type_0::FloatMult            0      0.00%     63.60% # Type of FU issued
system.switch_cpus00.iq.FU_type_0::FloatDiv            0      0.00%     63.60% # Type of FU issued
system.switch_cpus00.iq.FU_type_0::FloatSqrt            0      0.00%     63.60% # Type of FU issued
system.switch_cpus00.iq.FU_type_0::SimdAdd            0      0.00%     63.60% # Type of FU issued
system.switch_cpus00.iq.FU_type_0::SimdAddAcc            0      0.00%     63.60% # Type of FU issued
system.switch_cpus00.iq.FU_type_0::SimdAlu            0      0.00%     63.60% # Type of FU issued
system.switch_cpus00.iq.FU_type_0::SimdCmp            0      0.00%     63.60% # Type of FU issued
system.switch_cpus00.iq.FU_type_0::SimdCvt            0      0.00%     63.60% # Type of FU issued
system.switch_cpus00.iq.FU_type_0::SimdMisc            0      0.00%     63.60% # Type of FU issued
system.switch_cpus00.iq.FU_type_0::SimdMult            0      0.00%     63.60% # Type of FU issued
system.switch_cpus00.iq.FU_type_0::SimdMultAcc            0      0.00%     63.60% # Type of FU issued
system.switch_cpus00.iq.FU_type_0::SimdShift            0      0.00%     63.60% # Type of FU issued
system.switch_cpus00.iq.FU_type_0::SimdShiftAcc            0      0.00%     63.60% # Type of FU issued
system.switch_cpus00.iq.FU_type_0::SimdSqrt            0      0.00%     63.60% # Type of FU issued
system.switch_cpus00.iq.FU_type_0::SimdFloatAdd            0      0.00%     63.60% # Type of FU issued
system.switch_cpus00.iq.FU_type_0::SimdFloatAlu            0      0.00%     63.60% # Type of FU issued
system.switch_cpus00.iq.FU_type_0::SimdFloatCmp            0      0.00%     63.60% # Type of FU issued
system.switch_cpus00.iq.FU_type_0::SimdFloatCvt            0      0.00%     63.60% # Type of FU issued
system.switch_cpus00.iq.FU_type_0::SimdFloatDiv            0      0.00%     63.60% # Type of FU issued
system.switch_cpus00.iq.FU_type_0::SimdFloatMisc         7432      0.01%     63.61% # Type of FU issued
system.switch_cpus00.iq.FU_type_0::SimdFloatMult            0      0.00%     63.61% # Type of FU issued
system.switch_cpus00.iq.FU_type_0::SimdFloatMultAcc            0      0.00%     63.61% # Type of FU issued
system.switch_cpus00.iq.FU_type_0::SimdFloatSqrt            0      0.00%     63.61% # Type of FU issued
system.switch_cpus00.iq.FU_type_0::MemRead     29772817     23.98%     87.59% # Type of FU issued
system.switch_cpus00.iq.FU_type_0::MemWrite     15405021     12.41%    100.00% # Type of FU issued
system.switch_cpus00.iq.FU_type_0::IprAccess            0      0.00%    100.00% # Type of FU issued
system.switch_cpus00.iq.FU_type_0::InstPrefetch            0      0.00%    100.00% # Type of FU issued
system.switch_cpus00.iq.FU_type_0::total    124144319                       # Type of FU issued
system.switch_cpus00.iq.rate                 0.476083                       # Inst issue rate
system.switch_cpus00.iq.fu_busy_cnt           2770367                       # FU busy when requested
system.switch_cpus00.iq.fu_busy_rate         0.022316                       # FU busy rate (busy events/executed inst)
system.switch_cpus00.iq.int_inst_queue_reads    487549967                       # Number of integer instruction queue reads
system.switch_cpus00.iq.int_inst_queue_writes    139065728                       # Number of integer instruction queue writes
system.switch_cpus00.iq.int_inst_queue_wakeup_accesses    123087611                       # Number of integer instruction queue wakeup accesses
system.switch_cpus00.iq.fp_inst_queue_reads            0                       # Number of floating instruction queue reads
system.switch_cpus00.iq.fp_inst_queue_writes            0                       # Number of floating instruction queue writes
system.switch_cpus00.iq.fp_inst_queue_wakeup_accesses            0                       # Number of floating instruction queue wakeup accesses
system.switch_cpus00.iq.int_alu_accesses    126914686                       # Number of integer alu accesses
system.switch_cpus00.iq.fp_alu_accesses             0                       # Number of floating point alu accesses
system.switch_cpus00.iew.lsq.thread0.forwLoads       224653                       # Number of loads that had data forwarded from stores
system.switch_cpus00.iew.lsq.thread0.invAddrLoads            0                       # Number of loads ignored due to an invalid address
system.switch_cpus00.iew.lsq.thread0.squashedLoads      1188199                       # Number of loads squashed
system.switch_cpus00.iew.lsq.thread0.ignoredResponses          471                       # Number of memory responses ignored because the instruction is squashed
system.switch_cpus00.iew.lsq.thread0.memOrderViolation         3224                       # Number of memory ordering violations
system.switch_cpus00.iew.lsq.thread0.squashedStores        97923                       # Number of stores squashed
system.switch_cpus00.iew.lsq.thread0.invAddrSwpfs            0                       # Number of software prefetches ignored due to an invalid address
system.switch_cpus00.iew.lsq.thread0.blockedLoads            0                       # Number of blocked loads due to partial load-store forwarding
system.switch_cpus00.iew.lsq.thread0.rescheduledLoads        10956                       # Number of loads that were rescheduled
system.switch_cpus00.iew.lsq.thread0.cacheBlocked            0                       # Number of times an access to memory failed due to the cache being blocked
system.switch_cpus00.iew.iewIdleCycles              0                       # Number of cycles IEW is idle
system.switch_cpus00.iew.iewSquashCycles      1951520                       # Number of cycles IEW is squashing
system.switch_cpus00.iew.iewBlockCycles      25372185                       # Number of cycles IEW is blocking
system.switch_cpus00.iew.iewUnblockCycles       239857                       # Number of cycles IEW is unblocking
system.switch_cpus00.iew.iewDispatchedInsts    129129226                       # Number of instructions dispatched to IQ
system.switch_cpus00.iew.iewDispSquashedInsts         1310                       # Number of squashed instructions skipped by dispatch
system.switch_cpus00.iew.iewDispLoadInsts     30536236                       # Number of dispatched load instructions
system.switch_cpus00.iew.iewDispStoreInsts     15443260                       # Number of dispatched store instructions
system.switch_cpus00.iew.iewDispNonSpecInsts         7993                       # Number of dispatched non-speculative instructions
system.switch_cpus00.iew.iewIQFullEvents       149016                       # Number of times the IQ has become full, causing a stall
system.switch_cpus00.iew.iewLSQFullEvents          128                       # Number of times the LSQ has become full, causing a stall
system.switch_cpus00.iew.memOrderViolationEvents         3224                       # Number of memory order violations
system.switch_cpus00.iew.predictedTakenIncorrect       542011                       # Number of branches that were predicted taken incorrectly
system.switch_cpus00.iew.predictedNotTakenIncorrect       540989                       # Number of branches that were predicted not taken incorrectly
system.switch_cpus00.iew.branchMispredicts      1083000                       # Number of branch mispredicts detected at execute
system.switch_cpus00.iew.iewExecutedInsts    123281906                       # Number of executed instructions
system.switch_cpus00.iew.iewExecLoadInsts     29677266                       # Number of load instructions executed
system.switch_cpus00.iew.iewExecSquashedInsts       862413                       # Number of squashed instructions skipped in execute
system.switch_cpus00.iew.exec_swp                   0                       # number of swp insts executed
system.switch_cpus00.iew.exec_nop                  78                       # number of nop insts executed
system.switch_cpus00.iew.exec_refs           45080478                       # number of memory reference insts executed
system.switch_cpus00.iew.exec_branches       16155204                       # Number of branches executed
system.switch_cpus00.iew.exec_stores         15403212                       # Number of stores executed
system.switch_cpus00.iew.exec_rate           0.472776                       # Inst execution rate
system.switch_cpus00.iew.wb_sent            123090856                       # cumulative count of insts sent to commit
system.switch_cpus00.iew.wb_count           123087611                       # cumulative count of insts written-back
system.switch_cpus00.iew.wb_producers        66499872                       # num instructions producing a value
system.switch_cpus00.iew.wb_consumers       131256496                       # num instructions consuming a value
system.switch_cpus00.iew.wb_penalized               0                       # number of instrctions required to write to 'other' IQ
system.switch_cpus00.iew.wb_rate             0.472031                       # insts written-back per cycle
system.switch_cpus00.iew.wb_fanout           0.506641                       # average fanout of values written-back
system.switch_cpus00.iew.wb_penalized_rate            0                       # fraction of instructions written-back that wrote to 'other' IQ
system.switch_cpus00.commit.commitCommittedInsts    100000001                       # The number of committed instructions
system.switch_cpus00.commit.commitCommittedOps    117516369                       # The number of committed instructions
system.switch_cpus00.commit.commitSquashedInsts     11627195                       # The number of squashed insts skipped by commit
system.switch_cpus00.commit.commitNonSpecStalls        14980                       # The number of times commit has been forced to stall to communicate backwards
system.switch_cpus00.commit.branchMispredicts       944611                       # The number of times a branch was mispredicted
system.switch_cpus00.commit.committed_per_cycle::samples    234467819                       # Number of insts commited each cycle
system.switch_cpus00.commit.committed_per_cycle::mean     0.501205                       # Number of insts commited each cycle
system.switch_cpus00.commit.committed_per_cycle::stdev     1.319643                       # Number of insts commited each cycle
system.switch_cpus00.commit.committed_per_cycle::underflows            0      0.00%      0.00% # Number of insts commited each cycle
system.switch_cpus00.commit.committed_per_cycle::0    191685413     81.75%     81.75% # Number of insts commited each cycle
system.switch_cpus00.commit.committed_per_cycle::1     15743090      6.71%     88.47% # Number of insts commited each cycle
system.switch_cpus00.commit.committed_per_cycle::2      7336628      3.13%     91.60% # Number of insts commited each cycle
system.switch_cpus00.commit.committed_per_cycle::3      7213983      3.08%     94.67% # Number of insts commited each cycle
system.switch_cpus00.commit.committed_per_cycle::4      1991175      0.85%     95.52% # Number of insts commited each cycle
system.switch_cpus00.commit.committed_per_cycle::5      8258124      3.52%     99.04% # Number of insts commited each cycle
system.switch_cpus00.commit.committed_per_cycle::6       626902      0.27%     99.31% # Number of insts commited each cycle
system.switch_cpus00.commit.committed_per_cycle::7       458690      0.20%     99.51% # Number of insts commited each cycle
system.switch_cpus00.commit.committed_per_cycle::8      1153814      0.49%    100.00% # Number of insts commited each cycle
system.switch_cpus00.commit.committed_per_cycle::overflows            0      0.00%    100.00% # Number of insts commited each cycle
system.switch_cpus00.commit.committed_per_cycle::min_value            0                       # Number of insts commited each cycle
system.switch_cpus00.commit.committed_per_cycle::max_value            8                       # Number of insts commited each cycle
system.switch_cpus00.commit.committed_per_cycle::total    234467819                       # Number of insts commited each cycle
system.switch_cpus00.commit.committedInsts    100000001                       # Number of instructions committed
system.switch_cpus00.commit.committedOps    117516369                       # Number of ops (including micro ops) committed
system.switch_cpus00.commit.swp_count               0                       # Number of s/w prefetches committed
system.switch_cpus00.commit.refs             44693366                       # Number of memory references committed
system.switch_cpus00.commit.loads            29348034                       # Number of loads committed
system.switch_cpus00.commit.membars              7478                       # Number of memory barriers committed
system.switch_cpus00.commit.branches         15518719                       # Number of branches committed
system.switch_cpus00.commit.fp_insts                0                       # Number of committed floating point instructions.
system.switch_cpus00.commit.int_insts       104500046                       # Number of committed integer instructions.
system.switch_cpus00.commit.function_calls      1138202                       # Number of function calls committed.
system.switch_cpus00.commit.bw_lim_events      1153814                       # number cycles where commit BW limit reached
system.switch_cpus00.commit.bw_limited              0                       # number of insts not committed due to BW limits
system.switch_cpus00.rob.rob_reads          362457270                       # The number of ROB reads
system.switch_cpus00.rob.rob_writes         260238838                       # The number of ROB writes
system.switch_cpus00.timesIdled               4011364                       # Number of times that the entire CPU went into an idle state and unscheduled itself
system.switch_cpus00.idleCycles              24342497                       # Total number of cycles that the CPU has spent unscheduled due to idling
system.switch_cpus00.committedInsts         100000001                       # Number of Instructions Simulated
system.switch_cpus00.committedOps           117516369                       # Number of Ops (including micro ops) Simulated
system.switch_cpus00.committedInsts_total    100000001                       # Number of Instructions Simulated
system.switch_cpus00.cpi                     2.607618                       # CPI: Cycles Per Instruction
system.switch_cpus00.cpi_total               2.607618                       # CPI: Total CPI of All Threads
system.switch_cpus00.ipc                     0.383492                       # IPC: Instructions Per Cycle
system.switch_cpus00.ipc_total               0.383492                       # IPC: Total IPC of All Threads
system.switch_cpus00.int_regfile_reads      609497878                       # number of integer regfile reads
system.switch_cpus00.int_regfile_writes     142943421                       # number of integer regfile writes
system.switch_cpus00.misc_regfile_reads     154140201                       # number of misc regfile reads
system.switch_cpus00.misc_regfile_writes        14958                       # number of misc regfile writes
system.switch_cpus01.dtb.inst_hits                  0                       # ITB inst hits
system.switch_cpus01.dtb.inst_misses                0                       # ITB inst misses
system.switch_cpus01.dtb.read_hits                  0                       # DTB read hits
system.switch_cpus01.dtb.read_misses                0                       # DTB read misses
system.switch_cpus01.dtb.write_hits                 0                       # DTB write hits
system.switch_cpus01.dtb.write_misses               0                       # DTB write misses
system.switch_cpus01.dtb.flush_tlb                  0                       # Number of times complete TLB was flushed
system.switch_cpus01.dtb.flush_tlb_mva              0                       # Number of times TLB was flushed by MVA
system.switch_cpus01.dtb.flush_tlb_mva_asid            0                       # Number of times TLB was flushed by MVA & ASID
system.switch_cpus01.dtb.flush_tlb_asid             0                       # Number of times TLB was flushed by ASID
system.switch_cpus01.dtb.flush_entries              0                       # Number of entries that have been flushed from TLB
system.switch_cpus01.dtb.align_faults               0                       # Number of TLB faults due to alignment restrictions
system.switch_cpus01.dtb.prefetch_faults            0                       # Number of TLB faults due to prefetch
system.switch_cpus01.dtb.domain_faults              0                       # Number of TLB faults due to domain restrictions
system.switch_cpus01.dtb.perms_faults               0                       # Number of TLB faults due to permissions restrictions
system.switch_cpus01.dtb.read_accesses              0                       # DTB read accesses
system.switch_cpus01.dtb.write_accesses             0                       # DTB write accesses
[...]
system.cpu15.icache.demand_avg_miss_latency::total 1794357.215686                       # average overall miss latency
system.cpu15.icache.overall_avg_miss_latency::switch_cpus15.inst 1794357.215686                       # average overall miss latency
system.cpu15.icache.overall_avg_miss_latency::total 1794357.215686                       # average overall miss latency
system.cpu15.icache.blocked_cycles::no_mshrs            0                       # number of cycles access was blocked
system.cpu15.icache.blocked_cycles::no_targets            0                       # number of cycles access was blocked
system.cpu15.icache.blocked::no_mshrs               0                       # number of cycles access was blocked
system.cpu15.icache.blocked::no_targets             0                       # number of cycles access was blocked
system.cpu15.icache.avg_blocked_cycles::no_mshrs          nan                       # average number of cycles each access was blocked
system.cpu15.icache.avg_blocked_cycles::no_targets          nan                       # average number of cycles each access was blocked
system.cpu15.icache.fast_writes                     0                       # number of fast writes performed
system.cpu15.icache.cache_copies                    0                       # number of cache copies performed
system.cpu15.icache.ReadReq_mshr_hits::switch_cpus15.inst            7                       # number of ReadReq MSHR hits
system.cpu15.icache.ReadReq_mshr_hits::total            7                       # number of ReadReq MSHR hits
system.cpu15.icache.demand_mshr_hits::switch_cpus15.inst            7                       # number of demand (read+write) MSHR hits
system.cpu15.icache.demand_mshr_hits::total            7                       # number of demand (read+write) MSHR hits
system.cpu15.icache.overall_mshr_hits::switch_cpus15.inst            7                       # number of overall MSHR hits
system.cpu15.icache.overall_mshr_hits::total            7                       # number of overall MSHR hits
system.cpu15.icache.ReadReq_mshr_misses::switch_cpus15.inst           44                       # number of ReadReq MSHR misses
system.cpu15.icache.ReadReq_mshr_misses::total           44                       # number of ReadReq MSHR misses
system.cpu15.icache.demand_mshr_misses::switch_cpus15.inst           44                       # number of demand (read+write) MSHR misses
system.cpu15.icache.demand_mshr_misses::total           44                       # number of demand (read+write) MSHR misses
system.cpu15.icache.overall_mshr_misses::switch_cpus15.inst           44                       # number of overall MSHR misses
system.cpu15.icache.overall_mshr_misses::total           44                       # number of overall MSHR misses
system.cpu15.icache.ReadReq_mshr_miss_latency::switch_cpus15.inst     80310052                       # number of ReadReq MSHR miss cycles
system.cpu15.icache.ReadReq_mshr_miss_latency::total     80310052                       # number of ReadReq MSHR miss cycles
system.cpu15.icache.demand_mshr_miss_latency::switch_cpus15.inst     80310052                       # number of demand (read+write) MSHR miss cycles
system.cpu15.icache.demand_mshr_miss_latency::total     80310052                       # number of demand (read+write) MSHR miss cycles
system.cpu15.icache.overall_mshr_miss_latency::switch_cpus15.inst     80310052                       # number of overall MSHR miss cycles
system.cpu15.icache.overall_mshr_miss_latency::total     80310052                       # number of overall MSHR miss cycles
system.cpu15.icache.ReadReq_mshr_miss_rate::switch_cpus15.inst     0.000004                       # mshr miss rate for ReadReq accesses
system.cpu15.icache.ReadReq_mshr_miss_rate::total     0.000004                       # mshr miss rate for ReadReq accesses
system.cpu15.icache.demand_mshr_miss_rate::switch_cpus15.inst     0.000004                       # mshr miss rate for demand accesses
system.cpu15.icache.demand_mshr_miss_rate::total     0.000004                       # mshr miss rate for demand accesses
system.cpu15.icache.overall_mshr_miss_rate::switch_cpus15.inst     0.000004                       # mshr miss rate for overall accesses
system.cpu15.icache.overall_mshr_miss_rate::total     0.000004                       # mshr miss rate for overall accesses
system.cpu15.icache.ReadReq_avg_mshr_miss_latency::switch_cpus15.inst 1825228.454545                       # average ReadReq mshr miss latency
system.cpu15.icache.ReadReq_avg_mshr_miss_latency::total 1825228.454545                       # average ReadReq mshr miss latency
system.cpu15.icache.demand_avg_mshr_miss_latency::switch_cpus15.inst 1825228.454545                       # average overall mshr miss latency
system.cpu15.icache.demand_avg_mshr_miss_latency::total 1825228.454545                       # average overall mshr miss latency
system.cpu15.icache.overall_avg_mshr_miss_latency::switch_cpus15.inst 1825228.454545                       # average overall mshr miss latency
system.cpu15.icache.overall_avg_mshr_miss_latency::total 1825228.454545                       # average overall mshr miss latency
system.cpu15.icache.no_allocate_misses              0                       # Number of misses that were no-allocate
system.cpu15.dcache.replacements                39795                       # number of replacements
system.cpu15.dcache.tagsinuse                     256                       # Cycle average of tags in use
system.cpu15.dcache.total_refs              161742459                       # Total number of references to valid blocks.
system.cpu15.dcache.sampled_refs                40051                       # Sample count of references to valid blocks.
system.cpu15.dcache.avg_refs              4038.412499                       # Average number of references to valid blocks.
system.cpu15.dcache.warmup_cycle                    0                       # Cycle when the warmup percentage was hit.
system.cpu15.dcache.occ_blocks::switch_cpus15.data   233.856495                       # Average occupied blocks per requestor
system.cpu15.dcache.occ_blocks::cpu15.data    22.143505                       # Average occupied blocks per requestor
system.cpu15.dcache.occ_percent::switch_cpus15.data     0.913502                       # Average percentage of cache occupancy
system.cpu15.dcache.occ_percent::cpu15.data     0.086498                       # Average percentage of cache occupancy
system.cpu15.dcache.occ_percent::total              1                       # Average percentage of cache occupancy
system.cpu15.dcache.ReadReq_hits::switch_cpus15.data      8196303                       # number of ReadReq hits
system.cpu15.dcache.ReadReq_hits::total       8196303                       # number of ReadReq hits
system.cpu15.dcache.WriteReq_hits::switch_cpus15.data      6900480                       # number of WriteReq hits
system.cpu15.dcache.WriteReq_hits::total      6900480                       # number of WriteReq hits
system.cpu15.dcache.LoadLockedReq_hits::switch_cpus15.data        17743                       # number of LoadLockedReq hits
system.cpu15.dcache.LoadLockedReq_hits::total        17743                       # number of LoadLockedReq hits
system.cpu15.dcache.StoreCondReq_hits::switch_cpus15.data        16616                       # number of StoreCondReq hits
system.cpu15.dcache.StoreCondReq_hits::total        16616                       # number of StoreCondReq hits
system.cpu15.dcache.demand_hits::switch_cpus15.data     15096783                       # number of demand (read+write) hits
system.cpu15.dcache.demand_hits::total       15096783                       # number of demand (read+write) hits
system.cpu15.dcache.overall_hits::switch_cpus15.data     15096783                       # number of overall hits
system.cpu15.dcache.overall_hits::total      15096783                       # number of overall hits
system.cpu15.dcache.ReadReq_misses::switch_cpus15.data       127190                       # number of ReadReq misses
system.cpu15.dcache.ReadReq_misses::total       127190                       # number of ReadReq misses
system.cpu15.dcache.WriteReq_misses::switch_cpus15.data          916                       # number of WriteReq misses
system.cpu15.dcache.WriteReq_misses::total          916                       # number of WriteReq misses
system.cpu15.dcache.demand_misses::switch_cpus15.data       128106                       # number of demand (read+write) misses
system.cpu15.dcache.demand_misses::total       128106                       # number of demand (read+write) misses
system.cpu15.dcache.overall_misses::switch_cpus15.data       128106                       # number of overall misses
system.cpu15.dcache.overall_misses::total       128106                       # number of overall misses
system.cpu15.dcache.ReadReq_miss_latency::switch_cpus15.data  42633915496                       # number of ReadReq miss cycles
system.cpu15.dcache.ReadReq_miss_latency::total  42633915496                       # number of ReadReq miss cycles
system.cpu15.dcache.WriteReq_miss_latency::switch_cpus15.data     77542917                       # number of WriteReq miss cycles
system.cpu15.dcache.WriteReq_miss_latency::total     77542917                       # number of WriteReq miss cycles
system.cpu15.dcache.demand_miss_latency::switch_cpus15.data  42711458413                       # number of demand (read+write) miss cycles
system.cpu15.dcache.demand_miss_latency::total  42711458413                       # number of demand (read+write) miss cycles
system.cpu15.dcache.overall_miss_latency::switch_cpus15.data  42711458413                       # number of overall miss cycles
system.cpu15.dcache.overall_miss_latency::total  42711458413                       # number of overall miss cycles
system.cpu15.dcache.ReadReq_accesses::switch_cpus15.data      8323493                       # number of ReadReq accesses(hits+misses)
system.cpu15.dcache.ReadReq_accesses::total      8323493                       # number of ReadReq accesses(hits+misses)
system.cpu15.dcache.WriteReq_accesses::switch_cpus15.data      6901396                       # number of WriteReq accesses(hits+misses)
system.cpu15.dcache.WriteReq_accesses::total      6901396                       # number of WriteReq accesses(hits+misses)
system.cpu15.dcache.LoadLockedReq_accesses::switch_cpus15.data        17743                       # number of LoadLockedReq accesses(hits+misses)
system.cpu15.dcache.LoadLockedReq_accesses::total        17743                       # number of LoadLockedReq accesses(hits+misses)
system.cpu15.dcache.StoreCondReq_accesses::switch_cpus15.data        16616                       # number of StoreCondReq accesses(hits+misses)
system.cpu15.dcache.StoreCondReq_accesses::total        16616                       # number of StoreCondReq accesses(hits+misses)
system.cpu15.dcache.demand_accesses::switch_cpus15.data     15224889                       # number of demand (read+write) accesses
system.cpu15.dcache.demand_accesses::total     15224889                       # number of demand (read+write) accesses
system.cpu15.dcache.overall_accesses::switch_cpus15.data     15224889                       # number of overall (read+write) accesses
system.cpu15.dcache.overall_accesses::total     15224889                       # number of overall (read+write) accesses
system.cpu15.dcache.ReadReq_miss_rate::switch_cpus15.data     0.015281                       # miss rate for ReadReq accesses
system.cpu15.dcache.ReadReq_miss_rate::total     0.015281                       # miss rate for ReadReq accesses
system.cpu15.dcache.WriteReq_miss_rate::switch_cpus15.data     0.000133                       # miss rate for WriteReq accesses
system.cpu15.dcache.WriteReq_miss_rate::total     0.000133                       # miss rate for WriteReq accesses
system.cpu15.dcache.demand_miss_rate::switch_cpus15.data     0.008414                       # miss rate for demand accesses
system.cpu15.dcache.demand_miss_rate::total     0.008414                       # miss rate for demand accesses
system.cpu15.dcache.overall_miss_rate::switch_cpus15.data     0.008414                       # miss rate for overall accesses
system.cpu15.dcache.overall_miss_rate::total     0.008414                       # miss rate for overall accesses
system.cpu15.dcache.ReadReq_avg_miss_latency::switch_cpus15.data 335198.643730                       # average ReadReq miss latency
system.cpu15.dcache.ReadReq_avg_miss_latency::total 335198.643730                       # average ReadReq miss latency
system.cpu15.dcache.WriteReq_avg_miss_latency::switch_cpus15.data 84653.839520                       # average WriteReq miss latency
system.cpu15.dcache.WriteReq_avg_miss_latency::total 84653.839520                       # average WriteReq miss latency
system.cpu15.dcache.demand_avg_miss_latency::switch_cpus15.data 333407.166042                       # average overall miss latency
system.cpu15.dcache.demand_avg_miss_latency::total 333407.166042                       # average overall miss latency
system.cpu15.dcache.overall_avg_miss_latency::switch_cpus15.data 333407.166042                       # average overall miss latency
system.cpu15.dcache.overall_avg_miss_latency::total 333407.166042                       # average overall miss latency
system.cpu15.dcache.blocked_cycles::no_mshrs            0                       # number of cycles access was blocked
system.cpu15.dcache.blocked_cycles::no_targets            0                       # number of cycles access was blocked
system.cpu15.dcache.blocked::no_mshrs               0                       # number of cycles access was blocked
system.cpu15.dcache.blocked::no_targets             0                       # number of cycles access was blocked
system.cpu15.dcache.avg_blocked_cycles::no_mshrs          nan                       # average number of cycles each access was blocked
system.cpu15.dcache.avg_blocked_cycles::no_targets          nan                       # average number of cycles each access was blocked
system.cpu15.dcache.fast_writes                     0                       # number of fast writes performed
system.cpu15.dcache.cache_copies                    0                       # number of cache copies performed
system.cpu15.dcache.writebacks::writebacks         8971                       # number of writebacks
system.cpu15.dcache.writebacks::total            8971                       # number of writebacks
system.cpu15.dcache.ReadReq_mshr_hits::switch_cpus15.data        87549                       # number of ReadReq MSHR hits
system.cpu15.dcache.ReadReq_mshr_hits::total        87549                       # number of ReadReq MSHR hits
system.cpu15.dcache.WriteReq_mshr_hits::switch_cpus15.data          762                       # number of WriteReq MSHR hits
system.cpu15.dcache.WriteReq_mshr_hits::total          762                       # number of WriteReq MSHR hits
system.cpu15.dcache.demand_mshr_hits::switch_cpus15.data        88311                       # number of demand (read+write) MSHR hits
system.cpu15.dcache.demand_mshr_hits::total        88311                       # number of demand (read+write) MSHR hits
system.cpu15.dcache.overall_mshr_hits::switch_cpus15.data        88311                       # number of overall MSHR hits
system.cpu15.dcache.overall_mshr_hits::total        88311                       # number of overall MSHR hits
system.cpu15.dcache.ReadReq_mshr_misses::switch_cpus15.data        39641                       # number of ReadReq MSHR misses
system.cpu15.dcache.ReadReq_mshr_misses::total        39641                       # number of ReadReq MSHR misses
system.cpu15.dcache.WriteReq_mshr_misses::switch_cpus15.data          154                       # number of WriteReq MSHR misses
system.cpu15.dcache.WriteReq_mshr_misses::total          154                       # number of WriteReq MSHR misses
system.cpu15.dcache.demand_mshr_misses::switch_cpus15.data        39795                       # number of demand (read+write) MSHR misses
system.cpu15.dcache.demand_mshr_misses::total        39795                       # number of demand (read+write) MSHR misses
system.cpu15.dcache.overall_mshr_misses::switch_cpus15.data        39795                       # number of overall MSHR misses
system.cpu15.dcache.overall_mshr_misses::total        39795                       # number of overall MSHR misses
system.cpu15.dcache.ReadReq_mshr_miss_latency::switch_cpus15.data  11324015303                       # number of ReadReq MSHR miss cycles
system.cpu15.dcache.ReadReq_mshr_miss_latency::total  11324015303                       # number of ReadReq MSHR miss cycles
system.cpu15.dcache.WriteReq_mshr_miss_latency::switch_cpus15.data      9952832                       # number of WriteReq MSHR miss cycles
system.cpu15.dcache.WriteReq_mshr_miss_latency::total      9952832                       # number of WriteReq MSHR miss cycles
system.cpu15.dcache.demand_mshr_miss_latency::switch_cpus15.data  11333968135                       # number of demand (read+write) MSHR miss cycles
system.cpu15.dcache.demand_mshr_miss_latency::total  11333968135                       # number of demand (read+write) MSHR miss cycles
system.cpu15.dcache.overall_mshr_miss_latency::switch_cpus15.data  11333968135                       # number of overall MSHR miss cycles
system.cpu15.dcache.overall_mshr_miss_latency::total  11333968135                       # number of overall MSHR miss cycles
system.cpu15.dcache.ReadReq_mshr_miss_rate::switch_cpus15.data     0.004763                       # mshr miss rate for ReadReq accesses
system.cpu15.dcache.ReadReq_mshr_miss_rate::total     0.004763                       # mshr miss rate for ReadReq accesses
system.cpu15.dcache.WriteReq_mshr_miss_rate::switch_cpus15.data     0.000022                       # mshr miss rate for WriteReq accesses
system.cpu15.dcache.WriteReq_mshr_miss_rate::total     0.000022                       # mshr miss rate for WriteReq accesses
system.cpu15.dcache.demand_mshr_miss_rate::switch_cpus15.data     0.002614                       # mshr miss rate for demand accesses
system.cpu15.dcache.demand_mshr_miss_rate::total     0.002614                       # mshr miss rate for demand accesses
system.cpu15.dcache.overall_mshr_miss_rate::switch_cpus15.data     0.002614                       # mshr miss rate for overall accesses
system.cpu15.dcache.overall_mshr_miss_rate::total     0.002614                       # mshr miss rate for overall accesses
system.cpu15.dcache.ReadReq_avg_mshr_miss_latency::switch_cpus15.data 285664.218940                       # average ReadReq mshr miss latency
system.cpu15.dcache.ReadReq_avg_mshr_miss_latency::total 285664.218940                       # average ReadReq mshr miss latency
system.cpu15.dcache.WriteReq_avg_mshr_miss_latency::switch_cpus15.data 64628.779221                       # average WriteReq mshr miss latency
system.cpu15.dcache.WriteReq_avg_mshr_miss_latency::total 64628.779221                       # average WriteReq mshr miss latency
system.cpu15.dcache.demand_avg_mshr_miss_latency::switch_cpus15.data 284808.848725                       # average overall mshr miss latency
system.cpu15.dcache.demand_avg_mshr_miss_latency::total 284808.848725                       # average overall mshr miss latency
system.cpu15.dcache.overall_avg_mshr_miss_latency::switch_cpus15.data 284808.848725                       # average overall mshr miss latency
system.cpu15.dcache.overall_avg_mshr_miss_latency::total 284808.848725                       # average overall mshr miss latency
system.cpu15.dcache.no_allocate_misses              0                       # Number of misses that were no-allocate

---------- End Simulation Statistics   ----------
