
---------- Begin Simulation Statistics ----------
sim_seconds                                  0.001075                       # Number of seconds simulated
sim_ticks                                  1074981798                       # Number of ticks simulated
final_tick                               400277123226                       # Number of ticks from beginning of simulation (restored from checkpoints and never reset)
sim_freq                                 1000000000000                       # Frequency of simulated ticks
host_inst_rate                                 146844                       # Simulator instruction rate (inst/s)
host_op_rate                                   197586                       # Simulator op (including micro ops) rate (op/s)
host_tick_rate                                  27701                       # Simulator tick rate (ticks/s)
host_mem_usage                               67348612                       # Number of bytes of host memory used
host_seconds                                 38806.29                       # Real time elapsed on the host
sim_insts                                  5698459987                       # Number of instructions simulated
sim_ops                                    7667567855                       # Number of ops (including micro ops) simulated
system.physmem.bytes_read::switch_cpus0.inst         3072                       # Number of bytes read from this memory
system.physmem.bytes_read::switch_cpus0.data        15616                       # Number of bytes read from this memory
system.physmem.bytes_read::switch_cpus1.inst         3456                       # Number of bytes read from this memory
system.physmem.bytes_read::switch_cpus1.data        12032                       # Number of bytes read from this memory
system.physmem.bytes_read::switch_cpus2.inst         3328                       # Number of bytes read from this memory
system.physmem.bytes_read::switch_cpus2.data        18688                       # Number of bytes read from this memory
system.physmem.bytes_read::switch_cpus3.inst         3328                       # Number of bytes read from this memory
system.physmem.bytes_read::switch_cpus3.data        18944                       # Number of bytes read from this memory
system.physmem.bytes_read::switch_cpus4.inst         3456                       # Number of bytes read from this memory
system.physmem.bytes_read::switch_cpus4.data        12672                       # Number of bytes read from this memory
system.physmem.bytes_read::switch_cpus5.inst         2944                       # Number of bytes read from this memory
system.physmem.bytes_read::switch_cpus5.data        16000                       # Number of bytes read from this memory
system.physmem.bytes_read::switch_cpus6.inst         3200                       # Number of bytes read from this memory
system.physmem.bytes_read::switch_cpus6.data        17664                       # Number of bytes read from this memory
system.physmem.bytes_read::switch_cpus7.inst         1408                       # Number of bytes read from this memory
system.physmem.bytes_read::switch_cpus7.data        10880                       # Number of bytes read from this memory
system.physmem.bytes_read::total               146688                       # Number of bytes read from this memory
system.physmem.bytes_inst_read::switch_cpus0.inst         3072                       # Number of instructions bytes read from this memory
system.physmem.bytes_inst_read::switch_cpus1.inst         3456                       # Number of instructions bytes read from this memory
system.physmem.bytes_inst_read::switch_cpus2.inst         3328                       # Number of instructions bytes read from this memory
system.physmem.bytes_inst_read::switch_cpus3.inst         3328                       # Number of instructions bytes read from this memory
system.physmem.bytes_inst_read::switch_cpus4.inst         3456                       # Number of instructions bytes read from this memory
system.physmem.bytes_inst_read::switch_cpus5.inst         2944                       # Number of instructions bytes read from this memory
system.physmem.bytes_inst_read::switch_cpus6.inst         3200                       # Number of instructions bytes read from this memory
system.physmem.bytes_inst_read::switch_cpus7.inst         1408                       # Number of instructions bytes read from this memory
system.physmem.bytes_inst_read::total           24192                       # Number of instructions bytes read from this memory
system.physmem.bytes_written::writebacks        51840                       # Number of bytes written to this memory
system.physmem.bytes_written::total             51840                       # Number of bytes written to this memory
system.physmem.num_reads::switch_cpus0.inst           24                       # Number of read requests responded to by this memory
system.physmem.num_reads::switch_cpus0.data          122                       # Number of read requests responded to by this memory
system.physmem.num_reads::switch_cpus1.inst           27                       # Number of read requests responded to by this memory
system.physmem.num_reads::switch_cpus1.data           94                       # Number of read requests responded to by this memory
system.physmem.num_reads::switch_cpus2.inst           26                       # Number of read requests responded to by this memory
system.physmem.num_reads::switch_cpus2.data          146                       # Number of read requests responded to by this memory
system.physmem.num_reads::switch_cpus3.inst           26                       # Number of read requests responded to by this memory
system.physmem.num_reads::switch_cpus3.data          148                       # Number of read requests responded to by this memory
system.physmem.num_reads::switch_cpus4.inst           27                       # Number of read requests responded to by this memory
system.physmem.num_reads::switch_cpus4.data           99                       # Number of read requests responded to by this memory
system.physmem.num_reads::switch_cpus5.inst           23                       # Number of read requests responded to by this memory
system.physmem.num_reads::switch_cpus5.data          125                       # Number of read requests responded to by this memory
system.physmem.num_reads::switch_cpus6.inst           25                       # Number of read requests responded to by this memory
system.physmem.num_reads::switch_cpus6.data          138                       # Number of read requests responded to by this memory
system.physmem.num_reads::switch_cpus7.inst           11                       # Number of read requests responded to by this memory
system.physmem.num_reads::switch_cpus7.data           85                       # Number of read requests responded to by this memory
system.physmem.num_reads::total                  1146                       # Number of read requests responded to by this memory
system.physmem.num_writes::writebacks             405                       # Number of write requests responded to by this memory
system.physmem.num_writes::functional               0                       # Number of write requests responded to by this memory
system.physmem.num_writes::interrupt                0                       # Number of write requests responded to by this memory
system.physmem.num_writes::switch_cpus0.dtb.walker            0                       # Number of write requests responded to by this memory
system.physmem.num_writes::switch_cpus0.itb.walker            0                       # Number of write requests responded to by this memory
system.physmem.num_writes::switch_cpus0.inst            0                       # Number of write requests responded to by this memory
system.physmem.num_writes::switch_cpus0.data            0                       # Number of write requests responded to by this memory
system.physmem.num_writes::switch_cpus1.dtb.walker            0                       # Number of write requests responded to by this memory
system.physmem.num_writes::switch_cpus1.itb.walker            0                       # Number of write requests responded to by this memory
system.physmem.num_writes::switch_cpus1.inst            0                       # Number of write requests responded to by this memory
system.physmem.num_writes::switch_cpus1.data            0                       # Number of write requests responded to by this memory
system.physmem.num_writes::switch_cpus2.dtb.walker            0                       # Number of write requests responded to by this memory
system.physmem.num_writes::switch_cpus2.itb.walker            0                       # Number of write requests responded to by this memory
system.physmem.num_writes::switch_cpus2.inst            0                       # Number of write requests responded to by this memory
system.physmem.num_writes::switch_cpus2.data            0                       # Number of write requests responded to by this memory
system.physmem.num_writes::switch_cpus3.dtb.walker            0                       # Number of write requests responded to by this memory
system.physmem.num_writes::switch_cpus3.itb.walker            0                       # Number of write requests responded to by this memory
system.physmem.num_writes::switch_cpus3.inst            0                       # Number of write requests responded to by this memory
system.physmem.num_writes::switch_cpus3.data            0                       # Number of write requests responded to by this memory
system.physmem.num_writes::switch_cpus4.dtb.walker            0                       # Number of write requests responded to by this memory
system.physmem.num_writes::switch_cpus4.itb.walker            0                       # Number of write requests responded to by this memory
system.physmem.num_writes::switch_cpus4.inst            0                       # Number of write requests responded to by this memory
system.physmem.num_writes::switch_cpus4.data            0                       # Number of write requests responded to by this memory
system.physmem.num_writes::switch_cpus5.dtb.walker            0                       # Number of write requests responded to by this memory
system.physmem.num_writes::switch_cpus5.itb.walker            0                       # Number of write requests responded to by this memory
system.physmem.num_writes::switch_cpus5.inst            0                       # Number of write requests responded to by this memory
system.physmem.num_writes::switch_cpus5.data            0                       # Number of write requests responded to by this memory
system.physmem.num_writes::switch_cpus6.dtb.walker            0                       # Number of write requests responded to by this memory
system.physmem.num_writes::switch_cpus6.itb.walker            0                       # Number of write requests responded to by this memory
system.physmem.num_writes::switch_cpus6.inst            0                       # Number of write requests responded to by this memory
system.physmem.num_writes::switch_cpus6.data            0                       # Number of write requests responded to by this memory
system.physmem.num_writes::switch_cpus7.dtb.walker            0                       # Number of write requests responded to by this memory
system.physmem.num_writes::switch_cpus7.itb.walker            0                       # Number of write requests responded to by this memory
system.physmem.num_writes::switch_cpus7.inst            0                       # Number of write requests responded to by this memory
system.physmem.num_writes::switch_cpus7.data            0                       # Number of write requests responded to by this memory
system.physmem.num_writes::cpu0.dtb.walker            0                       # Number of write requests responded to by this memory
system.physmem.num_writes::cpu0.itb.walker            0                       # Number of write requests responded to by this memory
system.physmem.num_writes::cpu0.inst                0                       # Number of write requests responded to by this memory
system.physmem.num_writes::cpu0.data                0                       # Number of write requests responded to by this memory
system.physmem.num_writes::cpu1.dtb.walker            0                       # Number of write requests responded to by this memory
system.physmem.num_writes::cpu1.itb.walker            0                       # Number of write requests responded to by this memory
system.physmem.num_writes::cpu1.inst                0                       # Number of write requests responded to by this memory
system.physmem.num_writes::cpu1.data                0                       # Number of write requests responded to by this memory
system.physmem.num_writes::cpu2.dtb.walker            0                       # Number of write requests responded to by this memory
system.physmem.num_writes::cpu2.itb.walker            0                       # Number of write requests responded to by this memory
system.physmem.num_writes::cpu2.inst                0                       # Number of write requests responded to by this memory
system.physmem.num_writes::cpu2.data                0                       # Number of write requests responded to by this memory
system.physmem.num_writes::cpu3.dtb.walker            0                       # Number of write requests responded to by this memory
system.physmem.num_writes::cpu3.itb.walker            0                       # Number of write requests responded to by this memory
system.physmem.num_writes::cpu3.inst                0                       # Number of write requests responded to by this memory
system.physmem.num_writes::cpu3.data                0                       # Number of write requests responded to by this memory
system.physmem.num_writes::cpu4.dtb.walker            0                       # Number of write requests responded to by this memory
system.physmem.num_writes::cpu4.itb.walker            0                       # Number of write requests responded to by this memory
system.physmem.num_writes::cpu4.inst                0                       # Number of write requests responded to by this memory
system.physmem.num_writes::cpu4.data                0                       # Number of write requests responded to by this memory
system.physmem.num_writes::cpu5.dtb.walker            0                       # Number of write requests responded to by this memory
system.physmem.num_writes::cpu5.itb.walker            0                       # Number of write requests responded to by this memory
system.physmem.num_writes::cpu5.inst                0                       # Number of write requests responded to by this memory
system.physmem.num_writes::cpu5.data                0                       # Number of write requests responded to by this memory
system.physmem.num_writes::cpu6.dtb.walker            0                       # Number of write requests responded to by this memory
system.physmem.num_writes::cpu6.itb.walker            0                       # Number of write requests responded to by this memory
system.physmem.num_writes::cpu6.inst                0                       # Number of write requests responded to by this memory
system.physmem.num_writes::cpu6.data                0                       # Number of write requests responded to by this memory
system.physmem.num_writes::cpu7.dtb.walker            0                       # Number of write requests responded to by this memory
system.physmem.num_writes::cpu7.itb.walker            0                       # Number of write requests responded to by this memory
system.physmem.num_writes::cpu7.inst                0                       # Number of write requests responded to by this memory
system.physmem.num_writes::cpu7.data                0                       # Number of write requests responded to by this memory
system.physmem.num_writes::total                  405                       # Number of write requests responded to by this memory
system.physmem.bw_read::switch_cpus0.inst      2857723                       # Total read bandwidth from this memory (bytes/s)
system.physmem.bw_read::switch_cpus0.data     14526758                       # Total read bandwidth from this memory (bytes/s)
system.physmem.bw_read::switch_cpus1.inst      3214938                       # Total read bandwidth from this memory (bytes/s)
system.physmem.bw_read::switch_cpus1.data     11192748                       # Total read bandwidth from this memory (bytes/s)
system.physmem.bw_read::switch_cpus2.inst      3095866                       # Total read bandwidth from this memory (bytes/s)
system.physmem.bw_read::switch_cpus2.data     17384480                       # Total read bandwidth from this memory (bytes/s)
system.physmem.bw_read::switch_cpus3.inst      3095866                       # Total read bandwidth from this memory (bytes/s)
system.physmem.bw_read::switch_cpus3.data     17622624                       # Total read bandwidth from this memory (bytes/s)
system.physmem.bw_read::switch_cpus4.inst      3214938                       # Total read bandwidth from this memory (bytes/s)
system.physmem.bw_read::switch_cpus4.data     11788107                       # Total read bandwidth from this memory (bytes/s)
system.physmem.bw_read::switch_cpus5.inst      2738651                       # Total read bandwidth from this memory (bytes/s)
system.physmem.bw_read::switch_cpus5.data     14883973                       # Total read bandwidth from this memory (bytes/s)
system.physmem.bw_read::switch_cpus6.inst      2976795                       # Total read bandwidth from this memory (bytes/s)
system.physmem.bw_read::switch_cpus6.data     16431906                       # Total read bandwidth from this memory (bytes/s)
system.physmem.bw_read::switch_cpus7.inst      1309790                       # Total read bandwidth from this memory (bytes/s)
system.physmem.bw_read::switch_cpus7.data     10121102                       # Total read bandwidth from this memory (bytes/s)
system.physmem.bw_read::total               136456264                       # Total read bandwidth from this memory (bytes/s)
system.physmem.bw_inst_read::switch_cpus0.inst      2857723                       # Instruction read bandwidth from this memory (bytes/s)
system.physmem.bw_inst_read::switch_cpus1.inst      3214938                       # Instruction read bandwidth from this memory (bytes/s)
system.physmem.bw_inst_read::switch_cpus2.inst      3095866                       # Instruction read bandwidth from this memory (bytes/s)
system.physmem.bw_inst_read::switch_cpus3.inst      3095866                       # Instruction read bandwidth from this memory (bytes/s)
system.physmem.bw_inst_read::switch_cpus4.inst      3214938                       # Instruction read bandwidth from this memory (bytes/s)
system.physmem.bw_inst_read::switch_cpus5.inst      2738651                       # Instruction read bandwidth from this memory (bytes/s)
system.physmem.bw_inst_read::switch_cpus6.inst      2976795                       # Instruction read bandwidth from this memory (bytes/s)
system.physmem.bw_inst_read::switch_cpus7.inst      1309790                       # Instruction read bandwidth from this memory (bytes/s)
system.physmem.bw_inst_read::total           22504567                       # Instruction read bandwidth from this memory (bytes/s)
system.physmem.bw_write::writebacks          48224072                       # Write bandwidth from this memory (bytes/s)
system.physmem.bw_write::total               48224072                       # Write bandwidth from this memory (bytes/s)
system.physmem.bw_total::writebacks          48224072                       # Total bandwidth to/from this memory (bytes/s)
system.physmem.bw_total::switch_cpus0.inst      2857723                       # Total bandwidth to/from this memory (bytes/s)
system.physmem.bw_total::switch_cpus0.data     14526758                       # Total bandwidth to/from this memory (bytes/s)
system.physmem.bw_total::switch_cpus1.inst      3214938                       # Total bandwidth to/from this memory (bytes/s)
system.physmem.bw_total::switch_cpus1.data     11192748                       # Total bandwidth to/from this memory (bytes/s)
system.physmem.bw_total::switch_cpus2.inst      3095866                       # Total bandwidth to/from this memory (bytes/s)
system.physmem.bw_total::switch_cpus2.data     17384480                       # Total bandwidth to/from this memory (bytes/s)
system.physmem.bw_total::switch_cpus3.inst      3095866                       # Total bandwidth to/from this memory (bytes/s)
system.physmem.bw_total::switch_cpus3.data     17622624                       # Total bandwidth to/from this memory (bytes/s)
system.physmem.bw_total::switch_cpus4.inst      3214938                       # Total bandwidth to/from this memory (bytes/s)
system.physmem.bw_total::switch_cpus4.data     11788107                       # Total bandwidth to/from this memory (bytes/s)
system.physmem.bw_total::switch_cpus5.inst      2738651                       # Total bandwidth to/from this memory (bytes/s)
system.physmem.bw_total::switch_cpus5.data     14883973                       # Total bandwidth to/from this memory (bytes/s)
system.physmem.bw_total::switch_cpus6.inst      2976795                       # Total bandwidth to/from this memory (bytes/s)
system.physmem.bw_total::switch_cpus6.data     16431906                       # Total bandwidth to/from this memory (bytes/s)
system.physmem.bw_total::switch_cpus7.inst      1309790                       # Total bandwidth to/from this memory (bytes/s)
system.physmem.bw_total::switch_cpus7.data     10121102                       # Total bandwidth to/from this memory (bytes/s)
system.physmem.bw_total::total              184680336                       # Total bandwidth to/from this memory (bytes/s)
system.switch_cpus0.dtb.inst_hits                   0                       # ITB inst hits
system.switch_cpus0.dtb.inst_misses                 0                       # ITB inst misses
system.switch_cpus0.dtb.read_hits                   0                       # DTB read hits
system.switch_cpus0.dtb.read_misses                 0                       # DTB read misses
system.switch_cpus0.dtb.write_hits                  0                       # DTB write hits
system.switch_cpus0.dtb.write_misses                0                       # DTB write misses
system.switch_cpus0.dtb.flush_tlb                   0                       # Number of times complete TLB was flushed
system.switch_cpus0.dtb.flush_tlb_mva               0                       # Number of times TLB was flushed by MVA
system.switch_cpus0.dtb.flush_tlb_mva_asid            0                       # Number of times TLB was flushed by MVA & ASID
system.switch_cpus0.dtb.flush_tlb_asid              0                       # Number of times TLB was flushed by ASID
system.switch_cpus0.dtb.flush_entries               0                       # Number of entries that have been flushed from TLB
system.switch_cpus0.dtb.align_faults                0                       # Number of TLB faults due to alignment restrictions
system.switch_cpus0.dtb.prefetch_faults             0                       # Number of TLB faults due to prefetch
system.switch_cpus0.dtb.domain_faults               0                       # Number of TLB faults due to domain restrictions
system.switch_cpus0.dtb.perms_faults                0                       # Number of TLB faults due to permissions restrictions
system.switch_cpus0.dtb.read_accesses               0                       # DTB read accesses
system.switch_cpus0.dtb.write_accesses              0                       # DTB write accesses
system.switch_cpus0.dtb.inst_accesses               0                       # ITB inst accesses
system.switch_cpus0.dtb.hits                        0                       # DTB hits
system.switch_cpus0.dtb.misses                      0                       # DTB misses
system.switch_cpus0.dtb.accesses                    0                       # DTB accesses
system.switch_cpus0.itb.inst_hits                   0                       # ITB inst hits
system.switch_cpus0.itb.inst_misses                 0                       # ITB inst misses
system.switch_cpus0.itb.read_hits                   0                       # DTB read hits
system.switch_cpus0.itb.read_misses                 0                       # DTB read misses
system.switch_cpus0.itb.write_hits                  0                       # DTB write hits
system.switch_cpus0.itb.write_misses                0                       # DTB write misses
system.switch_cpus0.itb.flush_tlb                   0                       # Number of times complete TLB was flushed
system.switch_cpus0.itb.flush_tlb_mva               0                       # Number of times TLB was flushed by MVA
system.switch_cpus0.itb.flush_tlb_mva_asid            0                       # Number of times TLB was flushed by MVA & ASID
system.switch_cpus0.itb.flush_tlb_asid              0                       # Number of times TLB was flushed by ASID
system.switch_cpus0.itb.flush_entries               0                       # Number of entries that have been flushed from TLB
system.switch_cpus0.itb.align_faults                0                       # Number of TLB faults due to alignment restrictions
system.switch_cpus0.itb.prefetch_faults             0                       # Number of TLB faults due to prefetch
system.switch_cpus0.itb.domain_faults               0                       # Number of TLB faults due to domain restrictions
system.switch_cpus0.itb.perms_faults                0                       # Number of TLB faults due to permissions restrictions
system.switch_cpus0.itb.read_accesses               0                       # DTB read accesses
system.switch_cpus0.itb.write_accesses              0                       # DTB write accesses
system.switch_cpus0.itb.inst_accesses               0                       # ITB inst accesses
system.switch_cpus0.itb.hits                        0                       # DTB hits
system.switch_cpus0.itb.misses                      0                       # DTB misses
system.switch_cpus0.itb.accesses                    0                       # DTB accesses
system.cpu0.workload.num_syscalls                   1                       # Number of system calls
system.switch_cpus0.numCycles                 2577895                       # number of cpu cycles simulated
system.switch_cpus0.numWorkItemsStarted             0                       # number of work items this cpu started
system.switch_cpus0.numWorkItemsCompleted            0                       # number of work items this cpu completed
system.switch_cpus0.BPredUnit.lookups          209683                       # Number of BP lookups
system.switch_cpus0.BPredUnit.condPredicted       171750                       # Number of conditional branches predicted
system.switch_cpus0.BPredUnit.condIncorrect        22405                       # Number of conditional branches incorrect
system.switch_cpus0.BPredUnit.BTBLookups        86150                       # Number of BTB lookups
system.switch_cpus0.BPredUnit.BTBHits           79723                       # Number of BTB hits
system.switch_cpus0.BPredUnit.BTBCorrect            0                       # Number of correct BTB predictions (this stat may not work properly.
system.switch_cpus0.BPredUnit.usedRAS           21229                       # Number of times the RAS was used to get a target.
system.switch_cpus0.BPredUnit.RASInCorrect         1037                       # Number of incorrect RAS predictions.
system.switch_cpus0.fetch.icacheStallCycles      2010269                       # Number of cycles fetch is stalled on an Icache miss
system.switch_cpus0.fetch.Insts               1197485                       # Number of instructions fetch has processed
system.switch_cpus0.fetch.Branches             209683                       # Number of branches that fetch encountered
system.switch_cpus0.fetch.predictedBranches       100952                       # Number of branches that fetch has predicted taken
system.switch_cpus0.fetch.Cycles               262054                       # Number of cycles fetch has run and was not squashing or blocked
system.switch_cpus0.fetch.SquashCycles          64113                       # Number of cycles fetch has spent squashing
system.switch_cpus0.fetch.BlockedCycles         58240                       # Number of cycles fetch has spent blocked
system.switch_cpus0.fetch.CacheLines           125394                       # Number of cache lines fetched
system.switch_cpus0.fetch.IcacheSquashes        22112                       # Number of outstanding Icache misses that were squashed
system.switch_cpus0.fetch.rateDist::samples      2371902                       # Number of instructions fetched each cycle (Total)
system.switch_cpus0.fetch.rateDist::mean     0.618004                       # Number of instructions fetched each cycle (Total)
system.switch_cpus0.fetch.rateDist::stdev     1.973829                       # Number of instructions fetched each cycle (Total)
system.switch_cpus0.fetch.rateDist::underflows            0      0.00%      0.00% # Number of instructions fetched each cycle (Total)
system.switch_cpus0.fetch.rateDist::0         2109848     88.95%     88.95% # Number of instructions fetched each cycle (Total)
system.switch_cpus0.fetch.rateDist::1           27883      1.18%     90.13% # Number of instructions fetched each cycle (Total)
system.switch_cpus0.fetch.rateDist::2           32916      1.39%     91.52% # Number of instructions fetched each cycle (Total)
system.switch_cpus0.fetch.rateDist::3           17713      0.75%     92.26% # Number of instructions fetched each cycle (Total)
system.switch_cpus0.fetch.rateDist::4           19651      0.83%     93.09% # Number of instructions fetched each cycle (Total)
system.switch_cpus0.fetch.rateDist::5           11717      0.49%     93.58% # Number of instructions fetched each cycle (Total)
system.switch_cpus0.fetch.rateDist::6            7612      0.32%     93.91% # Number of instructions fetched each cycle (Total)
system.switch_cpus0.fetch.rateDist::7           20365      0.86%     94.76% # Number of instructions fetched each cycle (Total)
system.switch_cpus0.fetch.rateDist::8          124197      5.24%    100.00% # Number of instructions fetched each cycle (Total)
system.switch_cpus0.fetch.rateDist::overflows            0      0.00%    100.00% # Number of instructions fetched each cycle (Total)
system.switch_cpus0.fetch.rateDist::min_value            0                       # Number of instructions fetched each cycle (Total)
system.switch_cpus0.fetch.rateDist::max_value            8                       # Number of instructions fetched each cycle (Total)
system.switch_cpus0.fetch.rateDist::total      2371902                       # Number of instructions fetched each cycle (Total)
system.switch_cpus0.fetch.branchRate         0.081339                       # Number of branch fetches per cycle
system.switch_cpus0.fetch.rate               0.464520                       # Number of inst fetches per cycle
system.switch_cpus0.decode.IdleCycles         1992760                       # Number of cycles decode is idle
system.switch_cpus0.decode.BlockedCycles        76402                       # Number of cycles decode is blocked
system.switch_cpus0.decode.RunCycles           259380                       # Number of cycles decode is running
system.switch_cpus0.decode.UnblockCycles         2416                       # Number of cycles decode is unblocking
system.switch_cpus0.decode.SquashCycles         40940                       # Number of cycles decode is squashing
system.switch_cpus0.decode.BranchResolved        33995                       # Number of times decode resolved a branch
system.switch_cpus0.decode.BranchMispred          399                       # Number of times decode detected a branch misprediction
system.switch_cpus0.decode.DecodedInsts       1460675                       # Number of instructions handled by decode
system.switch_cpus0.decode.SquashedInsts         2174                       # Number of squashed instructions handled by decode
system.switch_cpus0.rename.SquashCycles         40940                       # Number of cycles rename is squashing
system.switch_cpus0.rename.IdleCycles         1996642                       # Number of cycles rename is idle
system.switch_cpus0.rename.BlockCycles          15958                       # Number of cycles rename is blocking
system.switch_cpus0.rename.serializeStallCycles        50679                       # count of cycles rename stalled for serializing inst
system.switch_cpus0.rename.RunCycles           257929                       # Number of cycles rename is running
system.switch_cpus0.rename.UnblockCycles         9750                       # Number of cycles rename is unblocking
system.switch_cpus0.rename.RenamedInsts       1458280                       # Number of instructions processed by rename
system.switch_cpus0.rename.ROBFullEvents            5                       # Number of times rename has blocked due to ROB full
system.switch_cpus0.rename.IQFullEvents          2028                       # Number of times rename has blocked due to IQ full
system.switch_cpus0.rename.LSQFullEvents         4784                       # Number of times rename has blocked due to LSQ full
system.switch_cpus0.rename.RenamedOperands      2029264                       # Number of destination operands rename has renamed
system.switch_cpus0.rename.RenameLookups      6788042                       # Number of register rename lookups that rename has made
system.switch_cpus0.rename.int_rename_lookups      6788042                       # Number of integer rename lookups
system.switch_cpus0.rename.CommittedMaps      1703093                       # Number of HB maps that are committed
system.switch_cpus0.rename.UndoneMaps          326158                       # Number of HB maps that are undone due to squashing
system.switch_cpus0.rename.serializingInsts          386                       # count of serializing insts renamed
system.switch_cpus0.rename.tempSerializingInsts          219                       # count of temporary serializing insts renamed
system.switch_cpus0.rename.skidInsts            28052                       # count of insts added to the skid buffer
system.switch_cpus0.memDep0.insertedLoads       139713                       # Number of loads inserted to the mem dependence unit.
system.switch_cpus0.memDep0.insertedStores        75248                       # Number of stores inserted to the mem dependence unit.
system.switch_cpus0.memDep0.conflictingLoads         1951                       # Number of conflicting loads.
system.switch_cpus0.memDep0.conflictingStores        15607                       # Number of conflicting stores.
system.switch_cpus0.iq.iqInstsAdded           1454209                       # Number of instructions added to the IQ (excludes non-spec)
system.switch_cpus0.iq.iqNonSpecInstsAdded          388                       # Number of non-speculative instructions added to the IQ
system.switch_cpus0.iq.iqInstsIssued          1366334                       # Number of instructions issued
system.switch_cpus0.iq.iqSquashedInstsIssued         1766                       # Number of squashed instructions issued
system.switch_cpus0.iq.iqSquashedInstsExamined       197567                       # Number of squashed instructions iterated over during squash; mainly for profiling
system.switch_cpus0.iq.iqSquashedOperandsExamined       459616                       # Number of squashed operands that are examined and possibly removed from graph
system.switch_cpus0.iq.iqSquashedNonSpecRemoved           51                       # Number of squashed non-spec instructions that were removed
system.switch_cpus0.iq.issued_per_cycle::samples      2371902                       # Number of insts issued each cycle
system.switch_cpus0.iq.issued_per_cycle::mean     0.576050                       # Number of insts issued each cycle
system.switch_cpus0.iq.issued_per_cycle::stdev     1.267072                       # Number of insts issued each cycle
system.switch_cpus0.iq.issued_per_cycle::underflows            0      0.00%      0.00% # Number of insts issued each cycle
system.switch_cpus0.iq.issued_per_cycle::0      1796727     75.75%     75.75% # Number of insts issued each cycle
system.switch_cpus0.iq.issued_per_cycle::1       231015      9.74%     85.49% # Number of insts issued each cycle
system.switch_cpus0.iq.issued_per_cycle::2       124621      5.25%     90.74% # Number of insts issued each cycle
system.switch_cpus0.iq.issued_per_cycle::3        85898      3.62%     94.37% # Number of insts issued each cycle
system.switch_cpus0.iq.issued_per_cycle::4        75171      3.17%     97.53% # Number of insts issued each cycle
system.switch_cpus0.iq.issued_per_cycle::5        38197      1.61%     99.15% # Number of insts issued each cycle
system.switch_cpus0.iq.issued_per_cycle::6         9715      0.41%     99.55% # Number of insts issued each cycle
system.switch_cpus0.iq.issued_per_cycle::7         6040      0.25%     99.81% # Number of insts issued each cycle
system.switch_cpus0.iq.issued_per_cycle::8         4518      0.19%    100.00% # Number of insts issued each cycle
system.switch_cpus0.iq.issued_per_cycle::overflows            0      0.00%    100.00% # Number of insts issued each cycle
system.switch_cpus0.iq.issued_per_cycle::min_value            0                       # Number of insts issued each cycle
system.switch_cpus0.iq.issued_per_cycle::max_value            8                       # Number of insts issued each cycle
system.switch_cpus0.iq.issued_per_cycle::total      2371902                       # Number of insts issued each cycle
system.switch_cpus0.iq.fu_full::No_OpClass            0      0.00%      0.00% # attempts to use FU when none available
system.switch_cpus0.iq.fu_full::IntAlu            343     11.67%     11.67% # attempts to use FU when none available
system.switch_cpus0.iq.fu_full::IntMult             0      0.00%     11.67% # attempts to use FU when none available
system.switch_cpus0.iq.fu_full::IntDiv              0      0.00%     11.67% # attempts to use FU when none available
system.switch_cpus0.iq.fu_full::FloatAdd            0      0.00%     11.67% # attempts to use FU when none available
system.switch_cpus0.iq.fu_full::FloatCmp            0      0.00%     11.67% # attempts to use FU when none available
system.switch_cpus0.iq.fu_full::FloatCvt            0      0.00%     11.67% # attempts to use FU when none available
system.switch_cpus0.iq.fu_full::FloatMult            0      0.00%     11.67% # attempts to use FU when none available
system.switch_cpus0.iq.fu_full::FloatDiv            0      0.00%     11.67% # attempts to use FU when none available
system.switch_cpus0.iq.fu_full::FloatSqrt            0      0.00%     11.67% # attempts to use FU when none available
system.switch_cpus0.iq.fu_full::SimdAdd             0      0.00%     11.67% # attempts to use FU when none available
system.switch_cpus0.iq.fu_full::SimdAddAcc            0      0.00%     11.67% # attempts to use FU when none available
system.switch_cpus0.iq.fu_full::SimdAlu             0      0.00%     11.67% # attempts to use FU when none available
system.switch_cpus0.iq.fu_full::SimdCmp             0      0.00%     11.67% # attempts to use FU when none available
system.switch_cpus0.iq.fu_full::SimdCvt             0      0.00%     11.67% # attempts to use FU when none available
system.switch_cpus0.iq.fu_full::SimdMisc            0      0.00%     11.67% # attempts to use FU when none available
system.switch_cpus0.iq.fu_full::SimdMult            0      0.00%     11.67% # attempts to use FU when none available
system.switch_cpus0.iq.fu_full::SimdMultAcc            0      0.00%     11.67% # attempts to use FU when none available
system.switch_cpus0.iq.fu_full::SimdShift            0      0.00%     11.67% # attempts to use FU when none available
system.switch_cpus0.iq.fu_full::SimdShiftAcc            0      0.00%     11.67% # attempts to use FU when none available
system.switch_cpus0.iq.fu_full::SimdSqrt            0      0.00%     11.67% # attempts to use FU when none available
system.switch_cpus0.iq.fu_full::SimdFloatAdd            0      0.00%     11.67% # attempts to use FU when none available
system.switch_cpus0.iq.fu_full::SimdFloatAlu            0      0.00%     11.67% # attempts to use FU when none available
system.switch_cpus0.iq.fu_full::SimdFloatCmp            0      0.00%     11.67% # attempts to use FU when none available
system.switch_cpus0.iq.fu_full::SimdFloatCvt            0      0.00%     11.67% # attempts to use FU when none available
system.switch_cpus0.iq.fu_full::SimdFloatDiv            0      0.00%     11.67% # attempts to use FU when none available
system.switch_cpus0.iq.fu_full::SimdFloatMisc            0      0.00%     11.67% # attempts to use FU when none available
system.switch_cpus0.iq.fu_full::SimdFloatMult            0      0.00%     11.67% # attempts to use FU when none available
system.switch_cpus0.iq.fu_full::SimdFloatMultAcc            0      0.00%     11.67% # attempts to use FU when none available
system.switch_cpus0.iq.fu_full::SimdFloatSqrt            0      0.00%     11.67% # attempts to use FU when none available
system.switch_cpus0.iq.fu_full::MemRead          1252     42.59%     54.25% # attempts to use FU when none available
system.switch_cpus0.iq.fu_full::MemWrite         1345     45.75%    100.00% # attempts to use FU when none available
system.switch_cpus0.iq.fu_full::IprAccess            0      0.00%    100.00% # attempts to use FU when none available
system.switch_cpus0.iq.fu_full::InstPrefetch            0      0.00%    100.00% # attempts to use FU when none available
system.switch_cpus0.iq.FU_type_0::No_OpClass            0      0.00%      0.00% # Type of FU issued
system.switch_cpus0.iq.FU_type_0::IntAlu      1144395     83.76%     83.76% # Type of FU issued
system.switch_cpus0.iq.FU_type_0::IntMult        21254      1.56%     85.31% # Type of FU issued
system.switch_cpus0.iq.FU_type_0::IntDiv            0      0.00%     85.31% # Type of FU issued
system.switch_cpus0.iq.FU_type_0::FloatAdd            0      0.00%     85.31% # Type of FU issued
system.switch_cpus0.iq.FU_type_0::FloatCmp            0      0.00%     85.31% # Type of FU issued
system.switch_cpus0.iq.FU_type_0::FloatCvt            0      0.00%     85.31% # Type of FU issued
system.switch_cpus0.iq.FU_type_0::FloatMult            0      0.00%     85.31% # Type of FU issued
system.switch_cpus0.iq.FU_type_0::FloatDiv            0      0.00%     85.31% # Type of FU issued
system.switch_cpus0.iq.FU_type_0::FloatSqrt            0      0.00%     85.31% # Type of FU issued
system.switch_cpus0.iq.FU_type_0::SimdAdd            0      0.00%     85.31% # Type of FU issued
system.switch_cpus0.iq.FU_type_0::SimdAddAcc            0      0.00%     85.31% # Type of FU issued
system.switch_cpus0.iq.FU_type_0::SimdAlu            0      0.00%     85.31% # Type of FU issued
system.switch_cpus0.iq.FU_type_0::SimdCmp            0      0.00%     85.31% # Type of FU issued
system.switch_cpus0.iq.FU_type_0::SimdCvt            0      0.00%     85.31% # Type of FU issued
system.switch_cpus0.iq.FU_type_0::SimdMisc            0      0.00%     85.31% # Type of FU issued
system.switch_cpus0.iq.FU_type_0::SimdMult            0      0.00%     85.31% # Type of FU issued
system.switch_cpus0.iq.FU_type_0::SimdMultAcc            0      0.00%     85.31% # Type of FU issued
system.switch_cpus0.iq.FU_type_0::SimdShift            0      0.00%     85.31% # Type of FU issued
system.switch_cpus0.iq.FU_type_0::SimdShiftAcc            0      0.00%     85.31% # Type of FU issued
system.switch_cpus0.iq.FU_type_0::SimdSqrt            0      0.00%     85.31% # Type of FU issued
system.switch_cpus0.iq.FU_type_0::SimdFloatAdd            0      0.00%     85.31% # Type of FU issued
system.switch_cpus0.iq.FU_type_0::SimdFloatAlu            0      0.00%     85.31% # Type of FU issued
system.switch_cpus0.iq.FU_type_0::SimdFloatCmp            0      0.00%     85.31% # Type of FU issued
system.switch_cpus0.iq.FU_type_0::SimdFloatCvt            0      0.00%     85.31% # Type of FU issued
system.switch_cpus0.iq.FU_type_0::SimdFloatDiv            0      0.00%     85.31% # Type of FU issued
system.switch_cpus0.iq.FU_type_0::SimdFloatMisc          166      0.01%     85.32% # Type of FU issued
system.switch_cpus0.iq.FU_type_0::SimdFloatMult            0      0.00%     85.32% # Type of FU issued
system.switch_cpus0.iq.FU_type_0::SimdFloatMultAcc            0      0.00%     85.32% # Type of FU issued
system.switch_cpus0.iq.FU_type_0::SimdFloatSqrt            0      0.00%     85.32% # Type of FU issued
system.switch_cpus0.iq.FU_type_0::MemRead       126032      9.22%     94.55% # Type of FU issued
system.switch_cpus0.iq.FU_type_0::MemWrite        74487      5.45%    100.00% # Type of FU issued
system.switch_cpus0.iq.FU_type_0::IprAccess            0      0.00%    100.00% # Type of FU issued
system.switch_cpus0.iq.FU_type_0::InstPrefetch            0      0.00%    100.00% # Type of FU issued
system.switch_cpus0.iq.FU_type_0::total       1366334                       # Type of FU issued
system.switch_cpus0.iq.rate                  0.530019                       # Inst issue rate
system.switch_cpus0.iq.fu_busy_cnt               2940                       # FU busy when requested
system.switch_cpus0.iq.fu_busy_rate          0.002152                       # FU busy rate (busy events/executed inst)
system.switch_cpus0.iq.int_inst_queue_reads      5109275                       # Number of integer instruction queue reads
system.switch_cpus0.iq.int_inst_queue_writes      1652205                       # Number of integer instruction queue writes
system.switch_cpus0.iq.int_inst_queue_wakeup_accesses      1341565                       # Number of integer instruction queue wakeup accesses
system.switch_cpus0.iq.fp_inst_queue_reads            0                       # Number of floating instruction queue reads
system.switch_cpus0.iq.fp_inst_queue_writes            0                       # Number of floating instruction queue writes
system.switch_cpus0.iq.fp_inst_queue_wakeup_accesses            0                       # Number of floating instruction queue wakeup accesses
system.switch_cpus0.iq.int_alu_accesses       1369274                       # Number of integer alu accesses
system.switch_cpus0.iq.fp_alu_accesses              0                       # Number of floating point alu accesses
system.switch_cpus0.iew.lsq.thread0.forwLoads         3530                       # Number of loads that had data forwarded from stores
system.switch_cpus0.iew.lsq.thread0.invAddrLoads            0                       # Number of loads ignored due to an invalid address
system.switch_cpus0.iew.lsq.thread0.squashedLoads        26832                       # Number of loads squashed
system.switch_cpus0.iew.lsq.thread0.ignoredResponses            6                       # Number of memory responses ignored because the instruction is squashed
system.switch_cpus0.iew.lsq.thread0.memOrderViolation           42                       # Number of memory ordering violations
system.switch_cpus0.iew.lsq.thread0.squashedStores         2182                       # Number of stores squashed
system.switch_cpus0.iew.lsq.thread0.invAddrSwpfs            0                       # Number of software prefetches ignored due to an invalid address
system.switch_cpus0.iew.lsq.thread0.blockedLoads            0                       # Number of blocked loads due to partial load-store forwarding
system.switch_cpus0.iew.lsq.thread0.rescheduledLoads           83                       # Number of loads that were rescheduled
system.switch_cpus0.iew.lsq.thread0.cacheBlocked            0                       # Number of times an access to memory failed due to the cache being blocked
system.switch_cpus0.iew.iewIdleCycles               0                       # Number of cycles IEW is idle
system.switch_cpus0.iew.iewSquashCycles         40940                       # Number of cycles IEW is squashing
system.switch_cpus0.iew.iewBlockCycles          11067                       # Number of cycles IEW is blocking
system.switch_cpus0.iew.iewUnblockCycles         1219                       # Number of cycles IEW is unblocking
system.switch_cpus0.iew.iewDispatchedInsts      1454605                       # Number of instructions dispatched to IQ
system.switch_cpus0.iew.iewDispSquashedInsts           12                       # Number of squashed instructions skipped by dispatch
system.switch_cpus0.iew.iewDispLoadInsts       139713                       # Number of dispatched load instructions
system.switch_cpus0.iew.iewDispStoreInsts        75248                       # Number of dispatched store instructions
system.switch_cpus0.iew.iewDispNonSpecInsts          220                       # Number of dispatched non-speculative instructions
system.switch_cpus0.iew.iewIQFullEvents           862                       # Number of times the IQ has become full, causing a stall
system.switch_cpus0.iew.iewLSQFullEvents            1                       # Number of times the LSQ has become full, causing a stall
system.switch_cpus0.iew.memOrderViolationEvents           42                       # Number of memory order violations
system.switch_cpus0.iew.predictedTakenIncorrect        12238                       # Number of branches that were predicted taken incorrectly
system.switch_cpus0.iew.predictedNotTakenIncorrect        13075                       # Number of branches that were predicted not taken incorrectly
system.switch_cpus0.iew.branchMispredicts        25313                       # Number of branch mispredicts detected at execute
system.switch_cpus0.iew.iewExecutedInsts      1344297                       # Number of executed instructions
system.switch_cpus0.iew.iewExecLoadInsts       118277                       # Number of load instructions executed
system.switch_cpus0.iew.iewExecSquashedInsts        22036                       # Number of squashed instructions skipped in execute
system.switch_cpus0.iew.exec_swp                    0                       # number of swp insts executed
system.switch_cpus0.iew.exec_nop                    8                       # number of nop insts executed
system.switch_cpus0.iew.exec_refs              192707                       # number of memory reference insts executed
system.switch_cpus0.iew.exec_branches          187529                       # Number of branches executed
system.switch_cpus0.iew.exec_stores             74430                       # Number of stores executed
system.switch_cpus0.iew.exec_rate            0.521471                       # Inst execution rate
system.switch_cpus0.iew.wb_sent               1341652                       # cumulative count of insts sent to commit
system.switch_cpus0.iew.wb_count              1341565                       # cumulative count of insts written-back
system.switch_cpus0.iew.wb_producers           798564                       # num instructions producing a value
system.switch_cpus0.iew.wb_consumers          2091424                       # num instructions consuming a value
system.switch_cpus0.iew.wb_penalized                0                       # number of instrctions required to write to 'other' IQ
system.switch_cpus0.iew.wb_rate              0.520411                       # insts written-back per cycle
system.switch_cpus0.iew.wb_fanout            0.381828                       # average fanout of values written-back
system.switch_cpus0.iew.wb_penalized_rate            0                       # fraction of instructions written-back that wrote to 'other' IQ
system.switch_cpus0.commit.commitCommittedInsts      1000002                       # The number of committed instructions
system.switch_cpus0.commit.commitCommittedOps      1226889                       # The number of committed instructions
system.switch_cpus0.commit.commitSquashedInsts       227721                       # The number of squashed insts skipped by commit
system.switch_cpus0.commit.commitNonSpecStalls          337                       # The number of times commit has been forced to stall to communicate backwards
system.switch_cpus0.commit.branchMispredicts        22346                       # The number of times a branch was mispredicted
system.switch_cpus0.commit.committed_per_cycle::samples      2330962                       # Number of insts commited each cycle
system.switch_cpus0.commit.committed_per_cycle::mean     0.526344                       # Number of insts commited each cycle
system.switch_cpus0.commit.committed_per_cycle::stdev     1.344716                       # Number of insts commited each cycle
system.switch_cpus0.commit.committed_per_cycle::underflows            0      0.00%      0.00% # Number of insts commited each cycle
system.switch_cpus0.commit.committed_per_cycle::0      1829751     78.50%     78.50% # Number of insts commited each cycle
system.switch_cpus0.commit.committed_per_cycle::1       232577      9.98%     88.48% # Number of insts commited each cycle
system.switch_cpus0.commit.committed_per_cycle::2        97361      4.18%     92.65% # Number of insts commited each cycle
system.switch_cpus0.commit.committed_per_cycle::3        58325      2.50%     95.15% # Number of insts commited each cycle
system.switch_cpus0.commit.committed_per_cycle::4        40275      1.73%     96.88% # Number of insts commited each cycle
system.switch_cpus0.commit.committed_per_cycle::5        26445      1.13%     98.02% # Number of insts commited each cycle
system.switch_cpus0.commit.committed_per_cycle::6        13850      0.59%     98.61% # Number of insts commited each cycle
system.switch_cpus0.commit.committed_per_cycle::7        10834      0.46%     99.08% # Number of insts commited each cycle
system.switch_cpus0.commit.committed_per_cycle::8        21544      0.92%    100.00% # Number of insts commited each cycle
system.switch_cpus0.commit.committed_per_cycle::overflows            0      0.00%    100.00% # Number of insts commited each cycle
system.switch_cpus0.commit.committed_per_cycle::min_value            0                       # Number of insts commited each cycle
system.switch_cpus0.commit.committed_per_cycle::max_value            8                       # Number of insts commited each cycle
system.switch_cpus0.commit.committed_per_cycle::total      2330962                       # Number of insts commited each cycle
system.switch_cpus0.commit.committedInsts      1000002                       # Number of instructions committed
system.switch_cpus0.commit.committedOps       1226889                       # Number of ops (including micro ops) committed
system.switch_cpus0.commit.swp_count                0                       # Number of s/w prefetches committed
system.switch_cpus0.commit.refs                185944                       # Number of memory references committed
system.switch_cpus0.commit.loads               112879                       # Number of loads committed
system.switch_cpus0.commit.membars                168                       # Number of memory barriers committed
system.switch_cpus0.commit.branches            175550                       # Number of branches committed
system.switch_cpus0.commit.fp_insts                 0                       # Number of committed floating point instructions.
system.switch_cpus0.commit.int_insts          1106121                       # Number of committed integer instructions.
system.switch_cpus0.commit.function_calls        24959                       # Number of function calls committed.
system.switch_cpus0.commit.bw_lim_events        21544                       # number cycles where commit BW limit reached
system.switch_cpus0.commit.bw_limited               0                       # number of insts not committed due to BW limits
system.switch_cpus0.rob.rob_reads             3764015                       # The number of ROB reads
system.switch_cpus0.rob.rob_writes            2950181                       # The number of ROB writes
system.switch_cpus0.timesIdled                  32862                       # Number of times that the entire CPU went into an idle state and unscheduled itself
system.switch_cpus0.idleCycles                 205993                       # Total number of cycles that the CPU has spent unscheduled due to idling
system.switch_cpus0.committedInsts            1000002                       # Number of Instructions Simulated
system.switch_cpus0.committedOps              1226889                       # Number of Ops (including micro ops) Simulated
system.switch_cpus0.committedInsts_total      1000002                       # Number of Instructions Simulated
system.switch_cpus0.cpi                      2.577890                       # CPI: Cycles Per Instruction
system.switch_cpus0.cpi_total                2.577890                       # CPI: Total CPI of All Threads
system.switch_cpus0.ipc                      0.387914                       # IPC: Instructions Per Cycle
system.switch_cpus0.ipc_total                0.387914                       # IPC: Total IPC of All Threads
system.switch_cpus0.int_regfile_reads         6062867                       # number of integer regfile reads
system.switch_cpus0.int_regfile_writes        1864514                       # number of integer regfile writes
system.switch_cpus0.misc_regfile_reads        1362228                       # number of misc regfile reads
system.switch_cpus0.misc_regfile_writes           336                       # number of misc regfile writes
system.switch_cpus1.dtb.inst_hits                   0                       # ITB inst hits
system.switch_cpus1.dtb.inst_misses                 0                       # ITB inst misses
system.switch_cpus1.dtb.read_hits                   0                       # DTB read hits
system.switch_cpus1.dtb.read_misses                 0                       # DTB read misses
system.switch_cpus1.dtb.write_hits                  0                       # DTB write hits
system.switch_cpus1.dtb.write_misses                0                       # DTB write misses
system.switch_cpus1.dtb.flush_tlb                   0                       # Number of times complete TLB was flushed
system.switch_cpus1.dtb.flush_tlb_mva               0                       # Number of times TLB was flushed by MVA
system.switch_cpus1.dtb.flush_tlb_mva_asid            0                       # Number of times TLB was flushed by MVA & ASID
system.switch_cpus1.dtb.flush_tlb_asid              0                       # Number of times TLB was flushed by ASID
system.switch_cpus1.dtb.flush_entries               0                       # Number of entries that have been flushed from TLB
system.switch_cpus1.dtb.align_faults                0                       # Number of TLB faults due to alignment restrictions
system.switch_cpus1.dtb.prefetch_faults             0                       # Number of TLB faults due to prefetch
system.switch_cpus1.dtb.domain_faults               0                       # Number of TLB faults due to domain restrictions
system.switch_cpus1.dtb.perms_faults                0                       # Number of TLB faults due to permissions restrictions
system.switch_cpus1.dtb.read_accesses               0                       # DTB read accesses
system.switch_cpus1.dtb.write_accesses              0                       # DTB write accesses
system.switch_cpus1.dtb.inst_accesses               0                       # ITB inst accesses
system.switch_cpus1.dtb.hits                        0                       # DTB hits
system.switch_cpus1.dtb.misses                      0                       # DTB misses
system.switch_cpus1.dtb.accesses                    0                       # DTB accesses
system.switch_cpus1.itb.inst_hits                   0                       # ITB inst hits
system.switch_cpus1.itb.inst_misses                 0                       # ITB inst misses
system.switch_cpus1.itb.read_hits                   0                       # DTB read hits
system.switch_cpus1.itb.read_misses                 0                       # DTB read misses
system.switch_cpus1.itb.write_hits                  0                       # DTB write hits
system.switch_cpus1.itb.write_misses                0                       # DTB write misses
system.switch_cpus1.itb.flush_tlb                   0                       # Number of times complete TLB was flushed
system.switch_cpus1.itb.flush_tlb_mva               0                       # Number of times TLB was flushed by MVA
system.switch_cpus1.itb.flush_tlb_mva_asid            0                       # Number of times TLB was flushed by MVA & ASID
system.switch_cpus1.itb.flush_tlb_asid              0                       # Number of times TLB was flushed by ASID
system.switch_cpus1.itb.flush_entries               0                       # Number of entries that have been flushed from TLB
system.switch_cpus1.itb.align_faults                0                       # Number of TLB faults due to alignment restrictions
system.switch_cpus1.itb.prefetch_faults             0                       # Number of TLB faults due to prefetch
system.switch_cpus1.itb.domain_faults               0                       # Number of TLB faults due to domain restrictions
system.switch_cpus1.itb.perms_faults                0                       # Number of TLB faults due to permissions restrictions
system.switch_cpus1.itb.read_accesses               0                       # DTB read accesses
system.switch_cpus1.itb.write_accesses              0                       # DTB write accesses
system.switch_cpus1.itb.inst_accesses               0                       # ITB inst accesses
system.switch_cpus1.itb.hits                        0                       # DTB hits
system.switch_cpus1.itb.misses                      0                       # DTB misses
system.switch_cpus1.itb.accesses                    0                       # DTB accesses
system.cpu1.workload.num_syscalls                   1                       # Number of system calls
system.switch_cpus1.numCycles                 2577895                       # number of cpu cycles simulated
system.switch_cpus1.numWorkItemsStarted             0                       # number of work items this cpu started
system.switch_cpus1.numWorkItemsCompleted            0                       # number of work items this cpu completed
system.switch_cpus1.BPredUnit.lookups          213580                       # Number of BP lookups
system.switch_cpus1.BPredUnit.condPredicted       174835                       # Number of conditional branches predicted
system.switch_cpus1.BPredUnit.condIncorrect        22627                       # Number of conditional branches incorrect
system.switch_cpus1.BPredUnit.BTBLookups        86687                       # Number of BTB lookups
system.switch_cpus1.BPredUnit.BTBHits           81754                       # Number of BTB hits
system.switch_cpus1.BPredUnit.BTBCorrect            0                       # Number of correct BTB predictions (this stat may not work properly.
system.switch_cpus1.BPredUnit.usedRAS           21525                       # Number of times the RAS was used to get a target.
system.switch_cpus1.BPredUnit.RASInCorrect         1041                       # Number of incorrect RAS predictions.
system.switch_cpus1.fetch.icacheStallCycles      2050096                       # Number of cycles fetch is stalled on an Icache miss
system.switch_cpus1.fetch.Insts               1195122                       # Number of instructions fetch has processed
system.switch_cpus1.fetch.Branches             213580                       # Number of branches that fetch encountered
system.switch_cpus1.fetch.predictedBranches       103279                       # Number of branches that fetch has predicted taken
system.switch_cpus1.fetch.Cycles               248013                       # Number of cycles fetch has run and was not squashing or blocked
system.switch_cpus1.fetch.SquashCycles          62691                       # Number of cycles fetch has spent squashing
system.switch_cpus1.fetch.BlockedCycles         40441                       # Number of cycles fetch has spent blocked
system.switch_cpus1.fetch.CacheLines           126963                       # Number of cache lines fetched
system.switch_cpus1.fetch.IcacheSquashes        22479                       # Number of outstanding Icache misses that were squashed
system.switch_cpus1.fetch.rateDist::samples      2378332                       # Number of instructions fetched each cycle (Total)
system.switch_cpus1.fetch.rateDist::mean     0.617238                       # Number of instructions fetched each cycle (Total)
system.switch_cpus1.fetch.rateDist::stdev     1.964944                       # Number of instructions fetched each cycle (Total)
system.switch_cpus1.fetch.rateDist::underflows            0      0.00%      0.00% # Number of instructions fetched each cycle (Total)
system.switch_cpus1.fetch.rateDist::0         2130319     89.57%     89.57% # Number of instructions fetched each cycle (Total)
system.switch_cpus1.fetch.rateDist::1           11386      0.48%     90.05% # Number of instructions fetched each cycle (Total)
system.switch_cpus1.fetch.rateDist::2           17929      0.75%     90.80% # Number of instructions fetched each cycle (Total)
system.switch_cpus1.fetch.rateDist::3           24093      1.01%     91.82% # Number of instructions fetched each cycle (Total)
system.switch_cpus1.fetch.rateDist::4           25580      1.08%     92.89% # Number of instructions fetched each cycle (Total)
system.switch_cpus1.fetch.rateDist::5           21634      0.91%     93.80% # Number of instructions fetched each cycle (Total)
system.switch_cpus1.fetch.rateDist::6           11458      0.48%     94.28% # Number of instructions fetched each cycle (Total)
system.switch_cpus1.fetch.rateDist::7           18228      0.77%     95.05% # Number of instructions fetched each cycle (Total)
system.switch_cpus1.fetch.rateDist::8          117705      4.95%    100.00% # Number of instructions fetched each cycle (Total)
system.switch_cpus1.fetch.rateDist::overflows            0      0.00%    100.00% # Number of instructions fetched each cycle (Total)
system.switch_cpus1.fetch.rateDist::min_value            0                       # Number of instructions fetched each cycle (Total)
system.switch_cpus1.fetch.rateDist::max_value            8                       # Number of instructions fetched each cycle (Total)
system.switch_cpus1.fetch.rateDist::total      2378332                       # Number of instructions fetched each cycle (Total)
system.switch_cpus1.fetch.branchRate         0.082851                       # Number of branch fetches per cycle
system.switch_cpus1.fetch.rate               0.463604                       # Number of inst fetches per cycle
system.switch_cpus1.decode.IdleCycles         2029443                       # Number of cycles decode is idle
system.switch_cpus1.decode.BlockedCycles        61531                       # Number of cycles decode is blocked
system.switch_cpus1.decode.RunCycles           247416                       # Number of cycles decode is running
system.switch_cpus1.decode.UnblockCycles          361                       # Number of cycles decode is unblocking
system.switch_cpus1.decode.SquashCycles         39574                       # Number of cycles decode is squashing
system.switch_cpus1.decode.BranchResolved        34894                       # Number of times decode resolved a branch
system.switch_cpus1.decode.BranchMispred          209                       # Number of times decode detected a branch misprediction
system.switch_cpus1.decode.DecodedInsts       1464672                       # Number of instructions handled by decode
system.switch_cpus1.decode.SquashedInsts         1276                       # Number of squashed instructions handled by decode
system.switch_cpus1.rename.SquashCycles         39574                       # Number of cycles rename is squashing
system.switch_cpus1.rename.IdleCycles         2035374                       # Number of cycles rename is idle
system.switch_cpus1.rename.BlockCycles          12550                       # Number of cycles rename is blocking
system.switch_cpus1.rename.serializeStallCycles        36005                       # count of cycles rename stalled for serializing inst
system.switch_cpus1.rename.RunCycles           241864                       # Number of cycles rename is running
system.switch_cpus1.rename.UnblockCycles        12956                       # Number of cycles rename is unblocking
system.switch_cpus1.rename.RenamedInsts       1463423                       # Number of instructions processed by rename
system.switch_cpus1.rename.ROBFullEvents            4                       # Number of times rename has blocked due to ROB full
system.switch_cpus1.rename.IQFullEvents          1593                       # Number of times rename has blocked due to IQ full
system.switch_cpus1.rename.LSQFullEvents         5775                       # Number of times rename has blocked due to LSQ full
system.switch_cpus1.rename.RenamedOperands      2042580                       # Number of destination operands rename has renamed
system.switch_cpus1.rename.RenameLookups      6803791                       # Number of register rename lookups that rename has made
system.switch_cpus1.rename.int_rename_lookups      6803791                       # Number of integer rename lookups
system.switch_cpus1.rename.CommittedMaps      1737901                       # Number of HB maps that are committed
system.switch_cpus1.rename.UndoneMaps          304650                       # Number of HB maps that are undone due to squashing
system.switch_cpus1.rename.serializingInsts          351                       # count of serializing insts renamed
system.switch_cpus1.rename.tempSerializingInsts          180                       # count of temporary serializing insts renamed
system.switch_cpus1.rename.skidInsts            40704                       # count of insts added to the skid buffer
system.switch_cpus1.memDep0.insertedLoads       137782                       # Number of loads inserted to the mem dependence unit.
system.switch_cpus1.memDep0.insertedStores        73435                       # Number of stores inserted to the mem dependence unit.
system.switch_cpus1.memDep0.conflictingLoads          823                       # Number of conflicting loads.
system.switch_cpus1.memDep0.conflictingStores        17864                       # Number of conflicting stores.
system.switch_cpus1.iq.iqInstsAdded           1460626                       # Number of instructions added to the IQ (excludes non-spec)
system.switch_cpus1.iq.iqNonSpecInstsAdded          352                       # Number of non-speculative instructions added to the IQ
system.switch_cpus1.iq.iqInstsIssued          1377112                       # Number of instructions issued
system.switch_cpus1.iq.iqSquashedInstsIssued          291                       # Number of squashed instructions issued
system.switch_cpus1.iq.iqSquashedInstsExamined       180179                       # Number of squashed instructions iterated over during squash; mainly for profiling
system.switch_cpus1.iq.iqSquashedOperandsExamined       435738                       # Number of squashed operands that are examined and possibly removed from graph
system.switch_cpus1.iq.iqSquashedNonSpecRemoved            7                       # Number of squashed non-spec instructions that were removed
system.switch_cpus1.iq.issued_per_cycle::samples      2378332                       # Number of insts issued each cycle
system.switch_cpus1.iq.issued_per_cycle::mean     0.579024                       # Number of insts issued each cycle
system.switch_cpus1.iq.issued_per_cycle::stdev     1.271253                       # Number of insts issued each cycle
system.switch_cpus1.iq.issued_per_cycle::underflows            0      0.00%      0.00% # Number of insts issued each cycle
system.switch_cpus1.iq.issued_per_cycle::0      1796199     75.52%     75.52% # Number of insts issued each cycle
system.switch_cpus1.iq.issued_per_cycle::1       238965     10.05%     85.57% # Number of insts issued each cycle
system.switch_cpus1.iq.issued_per_cycle::2       121317      5.10%     90.67% # Number of insts issued each cycle
system.switch_cpus1.iq.issued_per_cycle::3        91749      3.86%     94.53% # Number of insts issued each cycle
system.switch_cpus1.iq.issued_per_cycle::4        71932      3.02%     97.55% # Number of insts issued each cycle
system.switch_cpus1.iq.issued_per_cycle::5        28775      1.21%     98.76% # Number of insts issued each cycle
system.switch_cpus1.iq.issued_per_cycle::6        18439      0.78%     99.54% # Number of insts issued each cycle
system.switch_cpus1.iq.issued_per_cycle::7         9619      0.40%     99.94% # Number of insts issued each cycle
system.switch_cpus1.iq.issued_per_cycle::8         1337      0.06%    100.00% # Number of insts issued each cycle
system.switch_cpus1.iq.issued_per_cycle::overflows            0      0.00%    100.00% # Number of insts issued each cycle
system.switch_cpus1.iq.issued_per_cycle::min_value            0                       # Number of insts issued each cycle
system.switch_cpus1.iq.issued_per_cycle::max_value            8                       # Number of insts issued each cycle
system.switch_cpus1.iq.issued_per_cycle::total      2378332                       # Number of insts issued each cycle
system.switch_cpus1.iq.fu_full::No_OpClass            0      0.00%      0.00% # attempts to use FU when none available
system.switch_cpus1.iq.fu_full::IntAlu            289     11.80%     11.80% # attempts to use FU when none available
system.switch_cpus1.iq.fu_full::IntMult             0      0.00%     11.80% # attempts to use FU when none available
system.switch_cpus1.iq.fu_full::IntDiv              0      0.00%     11.80% # attempts to use FU when none available
system.switch_cpus1.iq.fu_full::FloatAdd            0      0.00%     11.80% # attempts to use FU when none available
system.switch_cpus1.iq.fu_full::FloatCmp            0      0.00%     11.80% # attempts to use FU when none available
system.switch_cpus1.iq.fu_full::FloatCvt            0      0.00%     11.80% # attempts to use FU when none available
system.switch_cpus1.iq.fu_full::FloatMult            0      0.00%     11.80% # attempts to use FU when none available
system.switch_cpus1.iq.fu_full::FloatDiv            0      0.00%     11.80% # attempts to use FU when none available
system.switch_cpus1.iq.fu_full::FloatSqrt            0      0.00%     11.80% # attempts to use FU when none available
system.switch_cpus1.iq.fu_full::SimdAdd             0      0.00%     11.80% # attempts to use FU when none available
system.switch_cpus1.iq.fu_full::SimdAddAcc            0      0.00%     11.80% # attempts to use FU when none available
system.switch_cpus1.iq.fu_full::SimdAlu             0      0.00%     11.80% # attempts to use FU when none available
system.switch_cpus1.iq.fu_full::SimdCmp             0      0.00%     11.80% # attempts to use FU when none available
system.switch_cpus1.iq.fu_full::SimdCvt             0      0.00%     11.80% # attempts to use FU when none available
system.switch_cpus1.iq.fu_full::SimdMisc            0      0.00%     11.80% # attempts to use FU when none available
system.switch_cpus1.iq.fu_full::SimdMult            0      0.00%     11.80% # attempts to use FU when none available
system.switch_cpus1.iq.fu_full::SimdMultAcc            0      0.00%     11.80% # attempts to use FU when none available
system.switch_cpus1.iq.fu_full::SimdShift            0      0.00%     11.80% # attempts to use FU when none available
system.switch_cpus1.iq.fu_full::SimdShiftAcc            0      0.00%     11.80% # attempts to use FU when none available
system.switch_cpus1.iq.fu_full::SimdSqrt            0      0.00%     11.80% # attempts to use FU when none available
system.switch_cpus1.iq.fu_full::SimdFloatAdd            0      0.00%     11.80% # attempts to use FU when none available
system.switch_cpus1.iq.fu_full::SimdFloatAlu            0      0.00%     11.80% # attempts to use FU when none available
system.switch_cpus1.iq.fu_full::SimdFloatCmp            0      0.00%     11.80% # attempts to use FU when none available
system.switch_cpus1.iq.fu_full::SimdFloatCvt            0      0.00%     11.80% # attempts to use FU when none available
system.switch_cpus1.iq.fu_full::SimdFloatDiv            0      0.00%     11.80% # attempts to use FU when none available
system.switch_cpus1.iq.fu_full::SimdFloatMisc            0      0.00%     11.80% # attempts to use FU when none available
system.switch_cpus1.iq.fu_full::SimdFloatMult            0      0.00%     11.80% # attempts to use FU when none available
system.switch_cpus1.iq.fu_full::SimdFloatMultAcc            0      0.00%     11.80% # attempts to use FU when none available
system.switch_cpus1.iq.fu_full::SimdFloatSqrt            0      0.00%     11.80% # attempts to use FU when none available
system.switch_cpus1.iq.fu_full::MemRead           909     37.10%     48.90% # attempts to use FU when none available
system.switch_cpus1.iq.fu_full::MemWrite         1252     51.10%    100.00% # attempts to use FU when none available
system.switch_cpus1.iq.fu_full::IprAccess            0      0.00%    100.00% # attempts to use FU when none available
system.switch_cpus1.iq.fu_full::InstPrefetch            0      0.00%    100.00% # attempts to use FU when none available
system.switch_cpus1.iq.FU_type_0::No_OpClass            0      0.00%      0.00% # Type of FU issued
system.switch_cpus1.iq.FU_type_0::IntAlu      1158733     84.14%     84.14% # Type of FU issued
system.switch_cpus1.iq.FU_type_0::IntMult        20430      1.48%     85.63% # Type of FU issued
system.switch_cpus1.iq.FU_type_0::IntDiv            0      0.00%     85.63% # Type of FU issued
system.switch_cpus1.iq.FU_type_0::FloatAdd            0      0.00%     85.63% # Type of FU issued
system.switch_cpus1.iq.FU_type_0::FloatCmp            0      0.00%     85.63% # Type of FU issued
system.switch_cpus1.iq.FU_type_0::FloatCvt            0      0.00%     85.63% # Type of FU issued
system.switch_cpus1.iq.FU_type_0::FloatMult            0      0.00%     85.63% # Type of FU issued
system.switch_cpus1.iq.FU_type_0::FloatDiv            0      0.00%     85.63% # Type of FU issued
system.switch_cpus1.iq.FU_type_0::FloatSqrt            0      0.00%     85.63% # Type of FU issued
system.switch_cpus1.iq.FU_type_0::SimdAdd            0      0.00%     85.63% # Type of FU issued
system.switch_cpus1.iq.FU_type_0::SimdAddAcc            0      0.00%     85.63% # Type of FU issued
system.switch_cpus1.iq.FU_type_0::SimdAlu            0      0.00%     85.63% # Type of FU issued
system.switch_cpus1.iq.FU_type_0::SimdCmp            0      0.00%     85.63% # Type of FU issued
system.switch_cpus1.iq.FU_type_0::SimdCvt            0      0.00%     85.63% # Type of FU issued
system.switch_cpus1.iq.FU_type_0::SimdMisc            0      0.00%     85.63% # Type of FU issued
[...]
system.cpu7.icache.ReadReq_miss_latency::total      2081188                       # number of ReadReq miss cycles
system.cpu7.icache.demand_miss_latency::switch_cpus7.inst      2081188                       # number of demand (read+write) miss cycles
system.cpu7.icache.demand_miss_latency::total      2081188                       # number of demand (read+write) miss cycles
system.cpu7.icache.overall_miss_latency::switch_cpus7.inst      2081188                       # number of overall miss cycles
system.cpu7.icache.overall_miss_latency::total      2081188                       # number of overall miss cycles
system.cpu7.icache.ReadReq_accesses::switch_cpus7.inst       127620                       # number of ReadReq accesses(hits+misses)
system.cpu7.icache.ReadReq_accesses::total       127620                       # number of ReadReq accesses(hits+misses)
system.cpu7.icache.demand_accesses::switch_cpus7.inst       127620                       # number of demand (read+write) accesses
system.cpu7.icache.demand_accesses::total       127620                       # number of demand (read+write) accesses
system.cpu7.icache.overall_accesses::switch_cpus7.inst       127620                       # number of overall (read+write) accesses
system.cpu7.icache.overall_accesses::total       127620                       # number of overall (read+write) accesses
system.cpu7.icache.ReadReq_miss_rate::switch_cpus7.inst     0.000110                       # miss rate for ReadReq accesses
system.cpu7.icache.ReadReq_miss_rate::total     0.000110                       # miss rate for ReadReq accesses
system.cpu7.icache.demand_miss_rate::switch_cpus7.inst     0.000110                       # miss rate for demand accesses
system.cpu7.icache.demand_miss_rate::total     0.000110                       # miss rate for demand accesses
system.cpu7.icache.overall_miss_rate::switch_cpus7.inst     0.000110                       # miss rate for overall accesses
system.cpu7.icache.overall_miss_rate::total     0.000110                       # miss rate for overall accesses
system.cpu7.icache.ReadReq_avg_miss_latency::switch_cpus7.inst 148656.285714                       # average ReadReq miss latency
system.cpu7.icache.ReadReq_avg_miss_latency::total 148656.285714                       # average ReadReq miss latency
system.cpu7.icache.demand_avg_miss_latency::switch_cpus7.inst 148656.285714                       # average overall miss latency
system.cpu7.icache.demand_avg_miss_latency::total 148656.285714                       # average overall miss latency
system.cpu7.icache.overall_avg_miss_latency::switch_cpus7.inst 148656.285714                       # average overall miss latency
system.cpu7.icache.overall_avg_miss_latency::total 148656.285714                       # average overall miss latency
system.cpu7.icache.blocked_cycles::no_mshrs            0                       # number of cycles access was blocked
system.cpu7.icache.blocked_cycles::no_targets            0                       # number of cycles access was blocked
system.cpu7.icache.blocked::no_mshrs                0                       # number of cycles access was blocked
system.cpu7.icache.blocked::no_targets              0                       # number of cycles access was blocked
system.cpu7.icache.avg_blocked_cycles::no_mshrs          nan                       # average number of cycles each access was blocked
system.cpu7.icache.avg_blocked_cycles::no_targets          nan                       # average number of cycles each access was blocked
system.cpu7.icache.fast_writes                      0                       # number of fast writes performed
system.cpu7.icache.cache_copies                     0                       # number of cache copies performed
system.cpu7.icache.ReadReq_mshr_hits::switch_cpus7.inst            3                       # number of ReadReq MSHR hits
system.cpu7.icache.ReadReq_mshr_hits::total            3                       # number of ReadReq MSHR hits
system.cpu7.icache.demand_mshr_hits::switch_cpus7.inst            3                       # number of demand (read+write) MSHR hits
system.cpu7.icache.demand_mshr_hits::total            3                       # number of demand (read+write) MSHR hits
system.cpu7.icache.overall_mshr_hits::switch_cpus7.inst            3                       # number of overall MSHR hits
system.cpu7.icache.overall_mshr_hits::total            3                       # number of overall MSHR hits
system.cpu7.icache.ReadReq_mshr_misses::switch_cpus7.inst           11                       # number of ReadReq MSHR misses
system.cpu7.icache.ReadReq_mshr_misses::total           11                       # number of ReadReq MSHR misses
system.cpu7.icache.demand_mshr_misses::switch_cpus7.inst           11                       # number of demand (read+write) MSHR misses
system.cpu7.icache.demand_mshr_misses::total           11                       # number of demand (read+write) MSHR misses
system.cpu7.icache.overall_mshr_misses::switch_cpus7.inst           11                       # number of overall MSHR misses
system.cpu7.icache.overall_mshr_misses::total           11                       # number of overall MSHR misses
system.cpu7.icache.ReadReq_mshr_miss_latency::switch_cpus7.inst      1683649                       # number of ReadReq MSHR miss cycles
system.cpu7.icache.ReadReq_mshr_miss_latency::total      1683649                       # number of ReadReq MSHR miss cycles
system.cpu7.icache.demand_mshr_miss_latency::switch_cpus7.inst      1683649                       # number of demand (read+write) MSHR miss cycles
system.cpu7.icache.demand_mshr_miss_latency::total      1683649                       # number of demand (read+write) MSHR miss cycles
system.cpu7.icache.overall_mshr_miss_latency::switch_cpus7.inst      1683649                       # number of overall MSHR miss cycles
system.cpu7.icache.overall_mshr_miss_latency::total      1683649                       # number of overall MSHR miss cycles
system.cpu7.icache.ReadReq_mshr_miss_rate::switch_cpus7.inst     0.000086                       # mshr miss rate for ReadReq accesses
system.cpu7.icache.ReadReq_mshr_miss_rate::total     0.000086                       # mshr miss rate for ReadReq accesses
system.cpu7.icache.demand_mshr_miss_rate::switch_cpus7.inst     0.000086                       # mshr miss rate for demand accesses
system.cpu7.icache.demand_mshr_miss_rate::total     0.000086                       # mshr miss rate for demand accesses
system.cpu7.icache.overall_mshr_miss_rate::switch_cpus7.inst     0.000086                       # mshr miss rate for overall accesses
system.cpu7.icache.overall_mshr_miss_rate::total     0.000086                       # mshr miss rate for overall accesses
system.cpu7.icache.ReadReq_avg_mshr_miss_latency::switch_cpus7.inst       153059                       # average ReadReq mshr miss latency
system.cpu7.icache.ReadReq_avg_mshr_miss_latency::total       153059                       # average ReadReq mshr miss latency
system.cpu7.icache.demand_avg_mshr_miss_latency::switch_cpus7.inst       153059                       # average overall mshr miss latency
system.cpu7.icache.demand_avg_mshr_miss_latency::total       153059                       # average overall mshr miss latency
system.cpu7.icache.overall_avg_mshr_miss_latency::switch_cpus7.inst       153059                       # average overall mshr miss latency
system.cpu7.icache.overall_avg_mshr_miss_latency::total       153059                       # average overall mshr miss latency
system.cpu7.icache.no_allocate_misses               0                       # Number of misses that were no-allocate
system.cpu7.dcache.replacements                   366                       # number of replacements
system.cpu7.dcache.tagsinuse                      256                       # Cycle average of tags in use
system.cpu7.dcache.total_refs               109335415                       # Total number of references to valid blocks.
system.cpu7.dcache.sampled_refs                   622                       # Sample count of references to valid blocks.
system.cpu7.dcache.avg_refs              175780.409968                       # Average number of references to valid blocks.
system.cpu7.dcache.warmup_cycle                     0                       # Cycle when the warmup percentage was hit.
system.cpu7.dcache.occ_blocks::switch_cpus7.data   129.545870                       # Average occupied blocks per requestor
system.cpu7.dcache.occ_blocks::cpu7.data   126.454130                       # Average occupied blocks per requestor
system.cpu7.dcache.occ_percent::switch_cpus7.data     0.506039                       # Average percentage of cache occupancy
system.cpu7.dcache.occ_percent::cpu7.data     0.493961                       # Average percentage of cache occupancy
system.cpu7.dcache.occ_percent::total               1                       # Average percentage of cache occupancy
system.cpu7.dcache.ReadReq_hits::switch_cpus7.data        99782                       # number of ReadReq hits
system.cpu7.dcache.ReadReq_hits::total          99782                       # number of ReadReq hits
system.cpu7.dcache.WriteReq_hits::switch_cpus7.data        73391                       # number of WriteReq hits
system.cpu7.dcache.WriteReq_hits::total         73391                       # number of WriteReq hits
system.cpu7.dcache.LoadLockedReq_hits::switch_cpus7.data          185                       # number of LoadLockedReq hits
system.cpu7.dcache.LoadLockedReq_hits::total          185                       # number of LoadLockedReq hits
system.cpu7.dcache.StoreCondReq_hits::switch_cpus7.data          178                       # number of StoreCondReq hits
system.cpu7.dcache.StoreCondReq_hits::total          178                       # number of StoreCondReq hits
system.cpu7.dcache.demand_hits::switch_cpus7.data       173173                       # number of demand (read+write) hits
system.cpu7.dcache.demand_hits::total          173173                       # number of demand (read+write) hits
system.cpu7.dcache.overall_hits::switch_cpus7.data       173173                       # number of overall hits
system.cpu7.dcache.overall_hits::total         173173                       # number of overall hits
system.cpu7.dcache.ReadReq_misses::switch_cpus7.data          944                       # number of ReadReq misses
system.cpu7.dcache.ReadReq_misses::total          944                       # number of ReadReq misses
system.cpu7.dcache.demand_misses::switch_cpus7.data          944                       # number of demand (read+write) misses
system.cpu7.dcache.demand_misses::total           944                       # number of demand (read+write) misses
system.cpu7.dcache.overall_misses::switch_cpus7.data          944                       # number of overall misses
system.cpu7.dcache.overall_misses::total          944                       # number of overall misses
system.cpu7.dcache.ReadReq_miss_latency::switch_cpus7.data     92727662                       # number of ReadReq miss cycles
system.cpu7.dcache.ReadReq_miss_latency::total     92727662                       # number of ReadReq miss cycles
system.cpu7.dcache.demand_miss_latency::switch_cpus7.data     92727662                       # number of demand (read+write) miss cycles
system.cpu7.dcache.demand_miss_latency::total     92727662                       # number of demand (read+write) miss cycles
system.cpu7.dcache.overall_miss_latency::switch_cpus7.data     92727662                       # number of overall miss cycles
system.cpu7.dcache.overall_miss_latency::total     92727662                       # number of overall miss cycles
system.cpu7.dcache.ReadReq_accesses::switch_cpus7.data       100726                       # number of ReadReq accesses(hits+misses)
system.cpu7.dcache.ReadReq_accesses::total       100726                       # number of ReadReq accesses(hits+misses)
system.cpu7.dcache.WriteReq_accesses::switch_cpus7.data        73391                       # number of WriteReq accesses(hits+misses)
system.cpu7.dcache.WriteReq_accesses::total        73391                       # number of WriteReq accesses(hits+misses)
system.cpu7.dcache.LoadLockedReq_accesses::switch_cpus7.data          185                       # number of LoadLockedReq accesses(hits+misses)
system.cpu7.dcache.LoadLockedReq_accesses::total          185                       # number of LoadLockedReq accesses(hits+misses)
system.cpu7.dcache.StoreCondReq_accesses::switch_cpus7.data          178                       # number of StoreCondReq accesses(hits+misses)
system.cpu7.dcache.StoreCondReq_accesses::total          178                       # number of StoreCondReq accesses(hits+misses)
system.cpu7.dcache.demand_accesses::switch_cpus7.data       174117                       # number of demand (read+write) accesses
system.cpu7.dcache.demand_accesses::total       174117                       # number of demand (read+write) accesses
system.cpu7.dcache.overall_accesses::switch_cpus7.data       174117                       # number of overall (read+write) accesses
system.cpu7.dcache.overall_accesses::total       174117                       # number of overall (read+write) accesses
system.cpu7.dcache.ReadReq_miss_rate::switch_cpus7.data     0.009372                       # miss rate for ReadReq accesses
system.cpu7.dcache.ReadReq_miss_rate::total     0.009372                       # miss rate for ReadReq accesses
system.cpu7.dcache.demand_miss_rate::switch_cpus7.data     0.005422                       # miss rate for demand accesses
system.cpu7.dcache.demand_miss_rate::total     0.005422                       # miss rate for demand accesses
system.cpu7.dcache.overall_miss_rate::switch_cpus7.data     0.005422                       # miss rate for overall accesses
system.cpu7.dcache.overall_miss_rate::total     0.005422                       # miss rate for overall accesses
system.cpu7.dcache.ReadReq_avg_miss_latency::switch_cpus7.data 98228.455508                       # average ReadReq miss latency
system.cpu7.dcache.ReadReq_avg_miss_latency::total 98228.455508                       # average ReadReq miss latency
system.cpu7.dcache.demand_avg_miss_latency::switch_cpus7.data 98228.455508                       # average overall miss latency
system.cpu7.dcache.demand_avg_miss_latency::total 98228.455508                       # average overall miss latency
system.cpu7.dcache.overall_avg_miss_latency::switch_cpus7.data 98228.455508                       # average overall miss latency
system.cpu7.dcache.overall_avg_miss_latency::total 98228.455508                       # average overall miss latency
system.cpu7.dcache.blocked_cycles::no_mshrs            0                       # number of cycles access was blocked
system.cpu7.dcache.blocked_cycles::no_targets            0                       # number of cycles access was blocked
system.cpu7.dcache.blocked::no_mshrs                0                       # number of cycles access was blocked
system.cpu7.dcache.blocked::no_targets              0                       # number of cycles access was blocked
system.cpu7.dcache.avg_blocked_cycles::no_mshrs          nan                       # average number of cycles each access was blocked
system.cpu7.dcache.avg_blocked_cycles::no_targets          nan                       # average number of cycles each access was blocked
system.cpu7.dcache.fast_writes                      0                       # number of fast writes performed
system.cpu7.dcache.cache_copies                     0                       # number of cache copies performed
system.cpu7.dcache.writebacks::writebacks           77                       # number of writebacks
system.cpu7.dcache.writebacks::total               77                       # number of writebacks
system.cpu7.dcache.ReadReq_mshr_hits::switch_cpus7.data          578                       # number of ReadReq MSHR hits
system.cpu7.dcache.ReadReq_mshr_hits::total          578                       # number of ReadReq MSHR hits
system.cpu7.dcache.demand_mshr_hits::switch_cpus7.data          578                       # number of demand (read+write) MSHR hits
system.cpu7.dcache.demand_mshr_hits::total          578                       # number of demand (read+write) MSHR hits
system.cpu7.dcache.overall_mshr_hits::switch_cpus7.data          578                       # number of overall MSHR hits
system.cpu7.dcache.overall_mshr_hits::total          578                       # number of overall MSHR hits
system.cpu7.dcache.ReadReq_mshr_misses::switch_cpus7.data          366                       # number of ReadReq MSHR misses
system.cpu7.dcache.ReadReq_mshr_misses::total          366                       # number of ReadReq MSHR misses
system.cpu7.dcache.demand_mshr_misses::switch_cpus7.data          366                       # number of demand (read+write) MSHR misses
system.cpu7.dcache.demand_mshr_misses::total          366                       # number of demand (read+write) MSHR misses
system.cpu7.dcache.overall_mshr_misses::switch_cpus7.data          366                       # number of overall MSHR misses
system.cpu7.dcache.overall_mshr_misses::total          366                       # number of overall MSHR misses
system.cpu7.dcache.ReadReq_mshr_miss_latency::switch_cpus7.data     32099600                       # number of ReadReq MSHR miss cycles
system.cpu7.dcache.ReadReq_mshr_miss_latency::total     32099600                       # number of ReadReq MSHR miss cycles
system.cpu7.dcache.demand_mshr_miss_latency::switch_cpus7.data     32099600                       # number of demand (read+write) MSHR miss cycles
system.cpu7.dcache.demand_mshr_miss_latency::total     32099600                       # number of demand (read+write) MSHR miss cycles
system.cpu7.dcache.overall_mshr_miss_latency::switch_cpus7.data     32099600                       # number of overall MSHR miss cycles
system.cpu7.dcache.overall_mshr_miss_latency::total     32099600                       # number of overall MSHR miss cycles
system.cpu7.dcache.ReadReq_mshr_miss_rate::switch_cpus7.data     0.003634                       # mshr miss rate for ReadReq accesses
system.cpu7.dcache.ReadReq_mshr_miss_rate::total     0.003634                       # mshr miss rate for ReadReq accesses
system.cpu7.dcache.demand_mshr_miss_rate::switch_cpus7.data     0.002102                       # mshr miss rate for demand accesses
system.cpu7.dcache.demand_mshr_miss_rate::total     0.002102                       # mshr miss rate for demand accesses
system.cpu7.dcache.overall_mshr_miss_rate::switch_cpus7.data     0.002102                       # mshr miss rate for overall accesses
system.cpu7.dcache.overall_mshr_miss_rate::total     0.002102                       # mshr miss rate for overall accesses
system.cpu7.dcache.ReadReq_avg_mshr_miss_latency::switch_cpus7.data 87703.825137                       # average ReadReq mshr miss latency
system.cpu7.dcache.ReadReq_avg_mshr_miss_latency::total 87703.825137                       # average ReadReq mshr miss latency
system.cpu7.dcache.demand_avg_mshr_miss_latency::switch_cpus7.data 87703.825137                       # average overall mshr miss latency
system.cpu7.dcache.demand_avg_mshr_miss_latency::total 87703.825137                       # average overall mshr miss latency
system.cpu7.dcache.overall_avg_mshr_miss_latency::switch_cpus7.data 87703.825137                       # average overall mshr miss latency
system.cpu7.dcache.overall_avg_mshr_miss_latency::total 87703.825137                       # average overall mshr miss latency
system.cpu7.dcache.no_allocate_misses               0                       # Number of misses that were no-allocate

---------- End Simulation Statistics   ----------
