
---------- Begin Simulation Statistics ----------
sim_seconds                                  0.119290                       # Number of seconds simulated
sim_ticks                                119290476382                       # Number of ticks simulated
final_tick                               1177149297695                       # Number of ticks from beginning of simulation (restored from checkpoints and never reset)
sim_freq                                 1000000000000                       # Frequency of simulated ticks
host_inst_rate                                  66296                       # Simulator instruction rate (inst/s)
host_op_rate                                    83732                       # Simulator op (including micro ops) rate (op/s)
host_tick_rate                                3584382                       # Simulator tick rate (ticks/s)
host_mem_usage                               16895236                       # Number of bytes of host memory used
host_seconds                                 33280.62                       # Real time elapsed on the host
sim_insts                                  2206356842                       # Number of instructions simulated
sim_ops                                    2786668666                       # Number of ops (including micro ops) simulated
system.physmem.bytes_read::switch_cpus0.inst         1280                       # Number of bytes read from this memory
system.physmem.bytes_read::switch_cpus0.data      1620096                       # Number of bytes read from this memory
system.physmem.bytes_read::switch_cpus1.inst         1664                       # Number of bytes read from this memory
system.physmem.bytes_read::switch_cpus1.data      2041344                       # Number of bytes read from this memory
system.physmem.bytes_read::total              3664384                       # Number of bytes read from this memory
system.physmem.bytes_inst_read::switch_cpus0.inst         1280                       # Number of instructions bytes read from this memory
system.physmem.bytes_inst_read::switch_cpus1.inst         1664                       # Number of instructions bytes read from this memory
system.physmem.bytes_inst_read::total            2944                       # Number of instructions bytes read from this memory
system.physmem.bytes_written::writebacks       945024                       # Number of bytes written to this memory
system.physmem.bytes_written::total            945024                       # Number of bytes written to this memory
system.physmem.num_reads::switch_cpus0.inst           10                       # Number of read requests responded to by this memory
system.physmem.num_reads::switch_cpus0.data        12657                       # Number of read requests responded to by this memory
system.physmem.num_reads::switch_cpus1.inst           13                       # Number of read requests responded to by this memory
system.physmem.num_reads::switch_cpus1.data        15948                       # Number of read requests responded to by this memory
system.physmem.num_reads::total                 28628                       # Number of read requests responded to by this memory
system.physmem.num_writes::writebacks            7383                       # Number of write requests responded to by this memory
system.physmem.num_writes::functional               0                       # Number of write requests responded to by this memory
system.physmem.num_writes::interrupt                0                       # Number of write requests responded to by this memory
system.physmem.num_writes::switch_cpus0.dtb.walker            0                       # Number of write requests responded to by this memory
system.physmem.num_writes::switch_cpus0.itb.walker            0                       # Number of write requests responded to by this memory
system.physmem.num_writes::switch_cpus0.inst            0                       # Number of write requests responded to by this memory
system.physmem.num_writes::switch_cpus0.data            0                       # Number of write requests responded to by this memory
system.physmem.num_writes::switch_cpus1.dtb.walker            0                       # Number of write requests responded to by this memory
system.physmem.num_writes::switch_cpus1.itb.walker            0                       # Number of write requests responded to by this memory
system.physmem.num_writes::switch_cpus1.inst            0                       # Number of write requests responded to by this memory
system.physmem.num_writes::switch_cpus1.data            0                       # Number of write requests responded to by this memory
system.physmem.num_writes::cpu0.dtb.walker            0                       # Number of write requests responded to by this memory
system.physmem.num_writes::cpu0.itb.walker            0                       # Number of write requests responded to by this memory
system.physmem.num_writes::cpu0.inst                0                       # Number of write requests responded to by this memory
system.physmem.num_writes::cpu0.data                0                       # Number of write requests responded to by this memory
system.physmem.num_writes::cpu1.dtb.walker            0                       # Number of write requests responded to by this memory
system.physmem.num_writes::cpu1.itb.walker            0                       # Number of write requests responded to by this memory
system.physmem.num_writes::cpu1.inst                0                       # Number of write requests responded to by this memory
system.physmem.num_writes::cpu1.data                0                       # Number of write requests responded to by this memory
system.physmem.num_writes::total                 7383                       # Number of write requests responded to by this memory
system.physmem.bw_read::switch_cpus0.inst        10730                       # Total read bandwidth from this memory (bytes/s)
system.physmem.bw_read::switch_cpus0.data     13581101                       # Total read bandwidth from this memory (bytes/s)
system.physmem.bw_read::switch_cpus1.inst        13949                       # Total read bandwidth from this memory (bytes/s)
system.physmem.bw_read::switch_cpus1.data     17112380                       # Total read bandwidth from this memory (bytes/s)
system.physmem.bw_read::total                30718161                       # Total read bandwidth from this memory (bytes/s)
system.physmem.bw_inst_read::switch_cpus0.inst        10730                       # Instruction read bandwidth from this memory (bytes/s)
system.physmem.bw_inst_read::switch_cpus1.inst        13949                       # Instruction read bandwidth from this memory (bytes/s)
system.physmem.bw_inst_read::total              24679                       # Instruction read bandwidth from this memory (bytes/s)
system.physmem.bw_write::writebacks           7922041                       # Write bandwidth from this memory (bytes/s)
system.physmem.bw_write::total                7922041                       # Write bandwidth from this memory (bytes/s)
system.physmem.bw_total::writebacks           7922041                       # Total bandwidth to/from this memory (bytes/s)
system.physmem.bw_total::switch_cpus0.inst        10730                       # Total bandwidth to/from this memory (bytes/s)
system.physmem.bw_total::switch_cpus0.data     13581101                       # Total bandwidth to/from this memory (bytes/s)
system.physmem.bw_total::switch_cpus1.inst        13949                       # Total bandwidth to/from this memory (bytes/s)
system.physmem.bw_total::switch_cpus1.data     17112380                       # Total bandwidth to/from this memory (bytes/s)
system.physmem.bw_total::total               38640201                       # Total bandwidth to/from this memory (bytes/s)
system.switch_cpus0.dtb.inst_hits                   0                       # ITB inst hits
system.switch_cpus0.dtb.inst_misses                 0                       # ITB inst misses
system.switch_cpus0.dtb.read_hits                   0                       # DTB read hits
system.switch_cpus0.dtb.read_misses                 0                       # DTB read misses
system.switch_cpus0.dtb.write_hits                  0                       # DTB write hits
system.switch_cpus0.dtb.write_misses                0                       # DTB write misses
system.switch_cpus0.dtb.flush_tlb                   0                       # Number of times complete TLB was flushed
system.switch_cpus0.dtb.flush_tlb_mva               0                       # Number of times TLB was flushed by MVA
system.switch_cpus0.dtb.flush_tlb_mva_asid            0                       # Number of times TLB was flushed by MVA & ASID
system.switch_cpus0.dtb.flush_tlb_asid              0                       # Number of times TLB was flushed by ASID
system.switch_cpus0.dtb.flush_entries               0                       # Number of entries that have been flushed from TLB
system.switch_cpus0.dtb.align_faults                0                       # Number of TLB faults due to alignment restrictions
system.switch_cpus0.dtb.prefetch_faults             0                       # Number of TLB faults due to prefetch
system.switch_cpus0.dtb.domain_faults               0                       # Number of TLB faults due to domain restrictions
system.switch_cpus0.dtb.perms_faults                0                       # Number of TLB faults due to permissions restrictions
system.switch_cpus0.dtb.read_accesses               0                       # DTB read accesses
system.switch_cpus0.dtb.write_accesses              0                       # DTB write accesses
system.switch_cpus0.dtb.inst_accesses               0                       # ITB inst accesses
system.switch_cpus0.dtb.hits                        0                       # DTB hits
system.switch_cpus0.dtb.misses                      0                       # DTB misses
system.switch_cpus0.dtb.accesses                    0                       # DTB accesses
system.switch_cpus0.itb.inst_hits                   0                       # ITB inst hits
system.switch_cpus0.itb.inst_misses                 0                       # ITB inst misses
system.switch_cpus0.itb.read_hits                   0                       # DTB read hits
system.switch_cpus0.itb.read_misses                 0                       # DTB read misses
system.switch_cpus0.itb.write_hits                  0                       # DTB write hits
system.switch_cpus0.itb.write_misses                0                       # DTB write misses
system.switch_cpus0.itb.flush_tlb                   0                       # Number of times complete TLB was flushed
system.switch_cpus0.itb.flush_tlb_mva               0                       # Number of times TLB was flushed by MVA
system.switch_cpus0.itb.flush_tlb_mva_asid            0                       # Number of times TLB was flushed by MVA & ASID
system.switch_cpus0.itb.flush_tlb_asid              0                       # Number of times TLB was flushed by ASID
system.switch_cpus0.itb.flush_entries               0                       # Number of entries that have been flushed from TLB
system.switch_cpus0.itb.align_faults                0                       # Number of TLB faults due to alignment restrictions
system.switch_cpus0.itb.prefetch_faults             0                       # Number of TLB faults due to prefetch
system.switch_cpus0.itb.domain_faults               0                       # Number of TLB faults due to domain restrictions
system.switch_cpus0.itb.perms_faults                0                       # Number of TLB faults due to permissions restrictions
system.switch_cpus0.itb.read_accesses               0                       # DTB read accesses
system.switch_cpus0.itb.write_accesses              0                       # DTB write accesses
system.switch_cpus0.itb.inst_accesses               0                       # ITB inst accesses
system.switch_cpus0.itb.hits                        0                       # DTB hits
system.switch_cpus0.itb.misses                      0                       # DTB misses
system.switch_cpus0.itb.accesses                    0                       # DTB accesses
system.cpu0.workload.num_syscalls                   0                       # Number of system calls
system.switch_cpus0.numCycles               143205855                       # number of cpu cycles simulated
system.switch_cpus0.numWorkItemsStarted             0                       # number of work items this cpu started
system.switch_cpus0.numWorkItemsCompleted            0                       # number of work items this cpu completed
system.switch_cpus0.BPredUnit.lookups        23173705                       # Number of BP lookups
system.switch_cpus0.BPredUnit.condPredicted     19085085                       # Number of conditional branches predicted
system.switch_cpus0.BPredUnit.condIncorrect      1931775                       # Number of conditional branches incorrect
system.switch_cpus0.BPredUnit.BTBLookups      9379849                       # Number of BTB lookups
system.switch_cpus0.BPredUnit.BTBHits         8670778                       # Number of BTB hits
system.switch_cpus0.BPredUnit.BTBCorrect            0                       # Number of correct BTB predictions (this stat may not work properly.
system.switch_cpus0.BPredUnit.usedRAS         2437607                       # Number of times the RAS was used to get a target.
system.switch_cpus0.BPredUnit.RASInCorrect        87564                       # Number of incorrect RAS predictions.
system.switch_cpus0.fetch.icacheStallCycles    104463045                       # Number of cycles fetch is stalled on an Icache miss
system.switch_cpus0.fetch.Insts             128041162                       # Number of instructions fetch has processed
system.switch_cpus0.fetch.Branches           23173705                       # Number of branches that fetch encountered
system.switch_cpus0.fetch.predictedBranches     11108385                       # Number of branches that fetch has predicted taken
system.switch_cpus0.fetch.Cycles             27189804                       # Number of cycles fetch has run and was not squashing or blocked
system.switch_cpus0.fetch.SquashCycles        6260044                       # Number of cycles fetch has spent squashing
system.switch_cpus0.fetch.BlockedCycles       4935777                       # Number of cycles fetch has spent blocked
system.switch_cpus0.fetch.CacheLines         12101850                       # Number of cache lines fetched
system.switch_cpus0.fetch.IcacheSquashes      1573010                       # Number of outstanding Icache misses that were squashed
system.switch_cpus0.fetch.rateDist::samples    140884936                       # Number of instructions fetched each cycle (Total)
system.switch_cpus0.fetch.rateDist::mean     1.107082                       # Number of instructions fetched each cycle (Total)
system.switch_cpus0.fetch.rateDist::stdev     2.548686                       # Number of instructions fetched each cycle (Total)
system.switch_cpus0.fetch.rateDist::underflows            0      0.00%      0.00% # Number of instructions fetched each cycle (Total)
system.switch_cpus0.fetch.rateDist::0       113695132     80.70%     80.70% # Number of instructions fetched each cycle (Total)
system.switch_cpus0.fetch.rateDist::1         2782733      1.98%     82.68% # Number of instructions fetched each cycle (Total)
system.switch_cpus0.fetch.rateDist::2         2362124      1.68%     84.35% # Number of instructions fetched each cycle (Total)
system.switch_cpus0.fetch.rateDist::3         2379975      1.69%     86.04% # Number of instructions fetched each cycle (Total)
system.switch_cpus0.fetch.rateDist::4         2270643      1.61%     87.65% # Number of instructions fetched each cycle (Total)
system.switch_cpus0.fetch.rateDist::5         1125227      0.80%     88.45% # Number of instructions fetched each cycle (Total)
system.switch_cpus0.fetch.rateDist::6          778990      0.55%     89.01% # Number of instructions fetched each cycle (Total)
system.switch_cpus0.fetch.rateDist::7         1979315      1.40%     90.41% # Number of instructions fetched each cycle (Total)
system.switch_cpus0.fetch.rateDist::8        13510797      9.59%    100.00% # Number of instructions fetched each cycle (Total)
system.switch_cpus0.fetch.rateDist::overflows            0      0.00%    100.00% # Number of instructions fetched each cycle (Total)
system.switch_cpus0.fetch.rateDist::min_value            0                       # Number of instructions fetched each cycle (Total)
system.switch_cpus0.fetch.rateDist::max_value            8                       # Number of instructions fetched each cycle (Total)
system.switch_cpus0.fetch.rateDist::total    140884936                       # Number of instructions fetched each cycle (Total)
system.switch_cpus0.fetch.branchRate         0.161821                       # Number of branch fetches per cycle
system.switch_cpus0.fetch.rate               0.894106                       # Number of inst fetches per cycle
system.switch_cpus0.decode.IdleCycles       103293901                       # Number of cycles decode is idle
system.switch_cpus0.decode.BlockedCycles      6349910                       # Number of cycles decode is blocked
system.switch_cpus0.decode.RunCycles         26841644                       # Number of cycles decode is running
system.switch_cpus0.decode.UnblockCycles       109627                       # Number of cycles decode is unblocking
system.switch_cpus0.decode.SquashCycles       4289845                       # Number of cycles decode is squashing
system.switch_cpus0.decode.BranchResolved      3729302                       # Number of times decode resolved a branch
system.switch_cpus0.decode.BranchMispred         6466                       # Number of times decode detected a branch misprediction
system.switch_cpus0.decode.DecodedInsts     154440611                       # Number of instructions handled by decode
system.switch_cpus0.decode.SquashedInsts        51179                       # Number of squashed instructions handled by decode
system.switch_cpus0.rename.SquashCycles       4289845                       # Number of cycles rename is squashing
system.switch_cpus0.rename.IdleCycles       103808999                       # Number of cycles rename is idle
system.switch_cpus0.rename.BlockCycles        3838858                       # Number of cycles rename is blocking
system.switch_cpus0.rename.serializeStallCycles      1353812                       # count of cycles rename stalled for serializing inst
system.switch_cpus0.rename.RunCycles         26425789                       # Number of cycles rename is running
system.switch_cpus0.rename.UnblockCycles      1167625                       # Number of cycles rename is unblocking
system.switch_cpus0.rename.RenamedInsts     152993978                       # Number of instructions processed by rename
system.switch_cpus0.rename.ROBFullEvents         1572                       # Number of times rename has blocked due to ROB full
system.switch_cpus0.rename.IQFullEvents        400350                       # Number of times rename has blocked due to IQ full
system.switch_cpus0.rename.LSQFullEvents       623583                       # Number of times rename has blocked due to LSQ full
system.switch_cpus0.rename.FullRegisterEvents        17040                       # Number of times there has been no free registers
system.switch_cpus0.rename.RenamedOperands    214045499                       # Number of destination operands rename has renamed
system.switch_cpus0.rename.RenameLookups    713124928                       # Number of register rename lookups that rename has made
system.switch_cpus0.rename.int_rename_lookups    713124928                       # Number of integer rename lookups
system.switch_cpus0.rename.CommittedMaps    168259218                       # Number of HB maps that are committed
system.switch_cpus0.rename.UndoneMaps        45786274                       # Number of HB maps that are undone due to squashing
system.switch_cpus0.rename.serializingInsts        33631                       # count of serializing insts renamed
system.switch_cpus0.rename.tempSerializingInsts        17609                       # count of temporary serializing insts renamed
system.switch_cpus0.rename.skidInsts          3804599                       # count of insts added to the skid buffer
system.switch_cpus0.memDep0.insertedLoads     15188605                       # Number of loads inserted to the mem dependence unit.
system.switch_cpus0.memDep0.insertedStores      7900685                       # Number of stores inserted to the mem dependence unit.
system.switch_cpus0.memDep0.conflictingLoads       311611                       # Number of conflicting loads.
system.switch_cpus0.memDep0.conflictingStores      1702874                       # Number of conflicting stores.
system.switch_cpus0.iq.iqInstsAdded         149135925                       # Number of instructions added to the IQ (excludes non-spec)
system.switch_cpus0.iq.iqNonSpecInstsAdded        33630                       # Number of non-speculative instructions added to the IQ
system.switch_cpus0.iq.iqInstsIssued        139205965                       # Number of instructions issued
system.switch_cpus0.iq.iqSquashedInstsIssued       107123                       # Number of squashed instructions issued
system.switch_cpus0.iq.iqSquashedInstsExamined     25183289                       # Number of squashed instructions iterated over during squash; mainly for profiling
system.switch_cpus0.iq.iqSquashedOperandsExamined     57115463                       # Number of squashed operands that are examined and possibly removed from graph
system.switch_cpus0.iq.iqSquashedNonSpecRemoved         1586                       # Number of squashed non-spec instructions that were removed
system.switch_cpus0.iq.issued_per_cycle::samples    140884936                       # Number of insts issued each cycle
system.switch_cpus0.iq.issued_per_cycle::mean     0.988083                       # Number of insts issued each cycle
system.switch_cpus0.iq.issued_per_cycle::stdev     1.584445                       # Number of insts issued each cycle
system.switch_cpus0.iq.issued_per_cycle::underflows            0      0.00%      0.00% # Number of insts issued each cycle
system.switch_cpus0.iq.issued_per_cycle::0     83502672     59.27%     59.27% # Number of insts issued each cycle
system.switch_cpus0.iq.issued_per_cycle::1     23722816     16.84%     76.11% # Number of insts issued each cycle
system.switch_cpus0.iq.issued_per_cycle::2     11955939      8.49%     84.59% # Number of insts issued each cycle
system.switch_cpus0.iq.issued_per_cycle::3      7813016      5.55%     90.14% # Number of insts issued each cycle
system.switch_cpus0.iq.issued_per_cycle::4      6908222      4.90%     95.04% # Number of insts issued each cycle
system.switch_cpus0.iq.issued_per_cycle::5      2705418      1.92%     96.96% # Number of insts issued each cycle
system.switch_cpus0.iq.issued_per_cycle::6      3061662      2.17%     99.14% # Number of insts issued each cycle
system.switch_cpus0.iq.issued_per_cycle::7      1119255      0.79%     99.93% # Number of insts issued each cycle
system.switch_cpus0.iq.issued_per_cycle::8        95936      0.07%    100.00% # Number of insts issued each cycle
system.switch_cpus0.iq.issued_per_cycle::overflows            0      0.00%    100.00% # Number of insts issued each cycle
system.switch_cpus0.iq.issued_per_cycle::min_value            0                       # Number of insts issued each cycle
system.switch_cpus0.iq.issued_per_cycle::max_value            8                       # Number of insts issued each cycle
system.switch_cpus0.iq.issued_per_cycle::total    140884936                       # Number of insts issued each cycle
system.switch_cpus0.iq.fu_full::No_OpClass            0      0.00%      0.00% # attempts to use FU when none available
system.switch_cpus0.iq.fu_full::IntAlu         976622     74.78%     74.78% # attempts to use FU when none available
system.switch_cpus0.iq.fu_full::IntMult             0      0.00%     74.78% # attempts to use FU when none available
system.switch_cpus0.iq.fu_full::IntDiv              0      0.00%     74.78% # attempts to use FU when none available
system.switch_cpus0.iq.fu_full::FloatAdd            0      0.00%     74.78% # attempts to use FU when none available
system.switch_cpus0.iq.fu_full::FloatCmp            0      0.00%     74.78% # attempts to use FU when none available
system.switch_cpus0.iq.fu_full::FloatCvt            0      0.00%     74.78% # attempts to use FU when none available
system.switch_cpus0.iq.fu_full::FloatMult            0      0.00%     74.78% # attempts to use FU when none available
system.switch_cpus0.iq.fu_full::FloatDiv            0      0.00%     74.78% # attempts to use FU when none available
system.switch_cpus0.iq.fu_full::FloatSqrt            0      0.00%     74.78% # attempts to use FU when none available
system.switch_cpus0.iq.fu_full::SimdAdd             0      0.00%     74.78% # attempts to use FU when none available
system.switch_cpus0.iq.fu_full::SimdAddAcc            0      0.00%     74.78% # attempts to use FU when none available
system.switch_cpus0.iq.fu_full::SimdAlu             0      0.00%     74.78% # attempts to use FU when none available
system.switch_cpus0.iq.fu_full::SimdCmp             0      0.00%     74.78% # attempts to use FU when none available
system.switch_cpus0.iq.fu_full::SimdCvt             0      0.00%     74.78% # attempts to use FU when none available
system.switch_cpus0.iq.fu_full::SimdMisc            0      0.00%     74.78% # attempts to use FU when none available
system.switch_cpus0.iq.fu_full::SimdMult            0      0.00%     74.78% # attempts to use FU when none available
system.switch_cpus0.iq.fu_full::SimdMultAcc            0      0.00%     74.78% # attempts to use FU when none available
system.switch_cpus0.iq.fu_full::SimdShift            0      0.00%     74.78% # attempts to use FU when none available
system.switch_cpus0.iq.fu_full::SimdShiftAcc            0      0.00%     74.78% # attempts to use FU when none available
system.switch_cpus0.iq.fu_full::SimdSqrt            0      0.00%     74.78% # attempts to use FU when none available
system.switch_cpus0.iq.fu_full::SimdFloatAdd            0      0.00%     74.78% # attempts to use FU when none available
system.switch_cpus0.iq.fu_full::SimdFloatAlu            0      0.00%     74.78% # attempts to use FU when none available
system.switch_cpus0.iq.fu_full::SimdFloatCmp            0      0.00%     74.78% # attempts to use FU when none available
system.switch_cpus0.iq.fu_full::SimdFloatCvt            0      0.00%     74.78% # attempts to use FU when none available
system.switch_cpus0.iq.fu_full::SimdFloatDiv            0      0.00%     74.78% # attempts to use FU when none available
system.switch_cpus0.iq.fu_full::SimdFloatMisc            0      0.00%     74.78% # attempts to use FU when none available
system.switch_cpus0.iq.fu_full::SimdFloatMult            0      0.00%     74.78% # attempts to use FU when none available
system.switch_cpus0.iq.fu_full::SimdFloatMultAcc            0      0.00%     74.78% # attempts to use FU when none available
system.switch_cpus0.iq.fu_full::SimdFloatSqrt            0      0.00%     74.78% # attempts to use FU when none available
system.switch_cpus0.iq.fu_full::MemRead        156842     12.01%     86.79% # attempts to use FU when none available
system.switch_cpus0.iq.fu_full::MemWrite       172489     13.21%    100.00% # attempts to use FU when none available
system.switch_cpus0.iq.fu_full::IprAccess            0      0.00%    100.00% # attempts to use FU when none available
system.switch_cpus0.iq.fu_full::InstPrefetch            0      0.00%    100.00% # attempts to use FU when none available
system.switch_cpus0.iq.FU_type_0::No_OpClass            0      0.00%      0.00% # Type of FU issued
system.switch_cpus0.iq.FU_type_0::IntAlu    114968563     82.59%     82.59% # Type of FU issued
system.switch_cpus0.iq.FU_type_0::IntMult      2012936      1.45%     84.03% # Type of FU issued
system.switch_cpus0.iq.FU_type_0::IntDiv            0      0.00%     84.03% # Type of FU issued
system.switch_cpus0.iq.FU_type_0::FloatAdd            0      0.00%     84.03% # Type of FU issued
system.switch_cpus0.iq.FU_type_0::FloatCmp            0      0.00%     84.03% # Type of FU issued
system.switch_cpus0.iq.FU_type_0::FloatCvt            0      0.00%     84.03% # Type of FU issued
system.switch_cpus0.iq.FU_type_0::FloatMult            0      0.00%     84.03% # Type of FU issued
system.switch_cpus0.iq.FU_type_0::FloatDiv            0      0.00%     84.03% # Type of FU issued
system.switch_cpus0.iq.FU_type_0::FloatSqrt            0      0.00%     84.03% # Type of FU issued
system.switch_cpus0.iq.FU_type_0::SimdAdd            0      0.00%     84.03% # Type of FU issued
system.switch_cpus0.iq.FU_type_0::SimdAddAcc            0      0.00%     84.03% # Type of FU issued
system.switch_cpus0.iq.FU_type_0::SimdAlu            0      0.00%     84.03% # Type of FU issued
system.switch_cpus0.iq.FU_type_0::SimdCmp            0      0.00%     84.03% # Type of FU issued
system.switch_cpus0.iq.FU_type_0::SimdCvt            0      0.00%     84.03% # Type of FU issued
system.switch_cpus0.iq.FU_type_0::SimdMisc            0      0.00%     84.03% # Type of FU issued
system.switch_cpus0.iq.FU_type_0::SimdMult            0      0.00%     84.03% # Type of FU issued
system.switch_cpus0.iq.FU_type_0::SimdMultAcc            0      0.00%     84.03% # Type of FU issued
system.switch_cpus0.iq.FU_type_0::SimdShift            0      0.00%     84.03% # Type of FU issued
system.switch_cpus0.iq.FU_type_0::SimdShiftAcc            0      0.00%     84.03% # Type of FU issued
system.switch_cpus0.iq.FU_type_0::SimdSqrt            0      0.00%     84.03% # Type of FU issued
system.switch_cpus0.iq.FU_type_0::SimdFloatAdd            0      0.00%     84.03% # Type of FU issued
system.switch_cpus0.iq.FU_type_0::SimdFloatAlu            0      0.00%     84.03% # Type of FU issued
system.switch_cpus0.iq.FU_type_0::SimdFloatCmp            0      0.00%     84.03% # Type of FU issued
system.switch_cpus0.iq.FU_type_0::SimdFloatCvt            0      0.00%     84.03% # Type of FU issued
system.switch_cpus0.iq.FU_type_0::SimdFloatDiv            0      0.00%     84.03% # Type of FU issued
system.switch_cpus0.iq.FU_type_0::SimdFloatMisc        16022      0.01%     84.05% # Type of FU issued
system.switch_cpus0.iq.FU_type_0::SimdFloatMult            0      0.00%     84.05% # Type of FU issued
system.switch_cpus0.iq.FU_type_0::SimdFloatMultAcc            0      0.00%     84.05% # Type of FU issued
system.switch_cpus0.iq.FU_type_0::SimdFloatSqrt            0      0.00%     84.05% # Type of FU issued
system.switch_cpus0.iq.FU_type_0::MemRead     14363595     10.32%     94.36% # Type of FU issued
system.switch_cpus0.iq.FU_type_0::MemWrite      7844849      5.64%    100.00% # Type of FU issued
system.switch_cpus0.iq.FU_type_0::IprAccess            0      0.00%    100.00% # Type of FU issued
system.switch_cpus0.iq.FU_type_0::InstPrefetch            0      0.00%    100.00% # Type of FU issued
system.switch_cpus0.iq.FU_type_0::total     139205965                       # Type of FU issued
system.switch_cpus0.iq.rate                  0.972069                       # Inst issue rate
system.switch_cpus0.iq.fu_busy_cnt            1305953                       # FU busy when requested
system.switch_cpus0.iq.fu_busy_rate          0.009381                       # FU busy rate (busy events/executed inst)
system.switch_cpus0.iq.int_inst_queue_reads    420709942                       # Number of integer instruction queue reads
system.switch_cpus0.iq.int_inst_queue_writes    174353517                       # Number of integer instruction queue writes
system.switch_cpus0.iq.int_inst_queue_wakeup_accesses    135093199                       # Number of integer instruction queue wakeup accesses
system.switch_cpus0.iq.fp_inst_queue_reads            0                       # Number of floating instruction queue reads
system.switch_cpus0.iq.fp_inst_queue_writes            0                       # Number of floating instruction queue writes
system.switch_cpus0.iq.fp_inst_queue_wakeup_accesses            0                       # Number of floating instruction queue wakeup accesses
system.switch_cpus0.iq.int_alu_accesses     140511918                       # Number of integer alu accesses
system.switch_cpus0.iq.fp_alu_accesses              0                       # Number of floating point alu accesses
system.switch_cpus0.iew.lsq.thread0.forwLoads       202730                       # Number of loads that had data forwarded from stores
system.switch_cpus0.iew.lsq.thread0.invAddrLoads            0                       # Number of loads ignored due to an invalid address
system.switch_cpus0.iew.lsq.thread0.squashedLoads      2976476                       # Number of loads squashed
system.switch_cpus0.iew.lsq.thread0.ignoredResponses         1210                       # Number of memory responses ignored because the instruction is squashed
system.switch_cpus0.iew.lsq.thread0.memOrderViolation          683                       # Number of memory ordering violations
system.switch_cpus0.iew.lsq.thread0.squashedStores       159015                       # Number of stores squashed
system.switch_cpus0.iew.lsq.thread0.invAddrSwpfs            0                       # Number of software prefetches ignored due to an invalid address
system.switch_cpus0.iew.lsq.thread0.blockedLoads            0                       # Number of blocked loads due to partial load-store forwarding
system.switch_cpus0.iew.lsq.thread0.rescheduledLoads          593                       # Number of loads that were rescheduled
system.switch_cpus0.iew.lsq.thread0.cacheBlocked            0                       # Number of times an access to memory failed due to the cache being blocked
system.switch_cpus0.iew.iewIdleCycles               0                       # Number of cycles IEW is idle
system.switch_cpus0.iew.iewSquashCycles       4289845                       # Number of cycles IEW is squashing
system.switch_cpus0.iew.iewBlockCycles        3161832                       # Number of cycles IEW is blocking
system.switch_cpus0.iew.iewUnblockCycles       251629                       # Number of cycles IEW is unblocking
system.switch_cpus0.iew.iewDispatchedInsts    149169555                       # Number of instructions dispatched to IQ
system.switch_cpus0.iew.iewDispSquashedInsts      1162228                       # Number of squashed instructions skipped by dispatch
system.switch_cpus0.iew.iewDispLoadInsts     15188605                       # Number of dispatched load instructions
system.switch_cpus0.iew.iewDispStoreInsts      7900685                       # Number of dispatched store instructions
system.switch_cpus0.iew.iewDispNonSpecInsts        17608                       # Number of dispatched non-speculative instructions
system.switch_cpus0.iew.iewIQFullEvents        200787                       # Number of times the IQ has become full, causing a stall
system.switch_cpus0.iew.iewLSQFullEvents        13156                       # Number of times the LSQ has become full, causing a stall
system.switch_cpus0.iew.memOrderViolationEvents          683                       # Number of memory order violations
system.switch_cpus0.iew.predictedTakenIncorrect      1149544                       # Number of branches that were predicted taken incorrectly
system.switch_cpus0.iew.predictedNotTakenIncorrect      1084611                       # Number of branches that were predicted not taken incorrectly
system.switch_cpus0.iew.branchMispredicts      2234155                       # Number of branch mispredicts detected at execute
system.switch_cpus0.iew.iewExecutedInsts    136834256                       # Number of executed instructions
system.switch_cpus0.iew.iewExecLoadInsts     14113394                       # Number of load instructions executed
system.switch_cpus0.iew.iewExecSquashedInsts      2371709                       # Number of squashed instructions skipped in execute
system.switch_cpus0.iew.exec_swp                    0                       # number of swp insts executed
system.switch_cpus0.iew.exec_nop                    0                       # number of nop insts executed
system.switch_cpus0.iew.exec_refs            21956744                       # number of memory reference insts executed
system.switch_cpus0.iew.exec_branches        19291339                       # Number of branches executed
system.switch_cpus0.iew.exec_stores           7843350                       # Number of stores executed
system.switch_cpus0.iew.exec_rate            0.955507                       # Inst execution rate
system.switch_cpus0.iew.wb_sent             135099759                       # cumulative count of insts sent to commit
system.switch_cpus0.iew.wb_count            135093199                       # cumulative count of insts written-back
system.switch_cpus0.iew.wb_producers         81535320                       # num instructions producing a value
system.switch_cpus0.iew.wb_consumers        221201819                       # num instructions consuming a value
system.switch_cpus0.iew.wb_penalized                0                       # number of instrctions required to write to 'other' IQ
system.switch_cpus0.iew.wb_rate              0.943350                       # insts written-back per cycle
system.switch_cpus0.iew.wb_fanout            0.368601                       # average fanout of values written-back
system.switch_cpus0.iew.wb_penalized_rate            0                       # fraction of instructions written-back that wrote to 'other' IQ
system.switch_cpus0.commit.commitCommittedInsts    100000000                       # The number of committed instructions
system.switch_cpus0.commit.commitCommittedOps    122421916                       # The number of committed instructions
system.switch_cpus0.commit.commitSquashedInsts     26755787                       # The number of squashed insts skipped by commit
system.switch_cpus0.commit.commitNonSpecStalls        32044                       # The number of times commit has been forced to stall to communicate backwards
system.switch_cpus0.commit.branchMispredicts      1956738                       # The number of times a branch was mispredicted
system.switch_cpus0.commit.committed_per_cycle::samples    136595091                       # Number of insts commited each cycle
system.switch_cpus0.commit.committed_per_cycle::mean     0.896239                       # Number of insts commited each cycle
system.switch_cpus0.commit.committed_per_cycle::stdev     1.712128                       # Number of insts commited each cycle
system.switch_cpus0.commit.committed_per_cycle::underflows            0      0.00%      0.00% # Number of insts commited each cycle
system.switch_cpus0.commit.committed_per_cycle::0     87498098     64.06%     64.06% # Number of insts commited each cycle
system.switch_cpus0.commit.committed_per_cycle::1     22501477     16.47%     80.53% # Number of insts commited each cycle
system.switch_cpus0.commit.committed_per_cycle::2     10808320      7.91%     88.44% # Number of insts commited each cycle
system.switch_cpus0.commit.committed_per_cycle::3      4817404      3.53%     91.97% # Number of insts commited each cycle
system.switch_cpus0.commit.committed_per_cycle::4      3769223      2.76%     94.73% # Number of insts commited each cycle
system.switch_cpus0.commit.committed_per_cycle::5      1536362      1.12%     95.85% # Number of insts commited each cycle
system.switch_cpus0.commit.committed_per_cycle::6      1563023      1.14%     97.00% # Number of insts commited each cycle
system.switch_cpus0.commit.committed_per_cycle::7      1094725      0.80%     97.80% # Number of insts commited each cycle
system.switch_cpus0.commit.committed_per_cycle::8      3006459      2.20%    100.00% # Number of insts commited each cycle
system.switch_cpus0.commit.committed_per_cycle::overflows            0      0.00%    100.00% # Number of insts commited each cycle
system.switch_cpus0.commit.committed_per_cycle::min_value            0                       # Number of insts commited each cycle
system.switch_cpus0.commit.committed_per_cycle::max_value            8                       # Number of insts commited each cycle
system.switch_cpus0.commit.committed_per_cycle::total    136595091                       # Number of insts commited each cycle
system.switch_cpus0.commit.committedInsts    100000000                       # Number of instructions committed
system.switch_cpus0.commit.committedOps     122421916                       # Number of ops (including micro ops) committed
system.switch_cpus0.commit.swp_count                0                       # Number of s/w prefetches committed
system.switch_cpus0.commit.refs              19953796                       # Number of memory references committed
system.switch_cpus0.commit.loads             12212126                       # Number of loads committed
system.switch_cpus0.commit.membars              16022                       # Number of memory barriers committed
system.switch_cpus0.commit.branches          17573934                       # Number of branches committed
system.switch_cpus0.commit.fp_insts                 0                       # Number of committed floating point instructions.
system.switch_cpus0.commit.int_insts        110146122                       # Number of committed integer instructions.
system.switch_cpus0.commit.function_calls      2413416                       # Number of function calls committed.
system.switch_cpus0.commit.bw_lim_events      3006459                       # number cycles where commit BW limit reached
system.switch_cpus0.commit.bw_limited               0                       # number of insts not committed due to BW limits
system.switch_cpus0.rob.rob_reads           282766335                       # The number of ROB reads
system.switch_cpus0.rob.rob_writes          302645510                       # The number of ROB writes
system.switch_cpus0.timesIdled                  55814                       # Number of times that the entire CPU went into an idle state and unscheduled itself
system.switch_cpus0.idleCycles                2320919                       # Total number of cycles that the CPU has spent unscheduled due to idling
system.switch_cpus0.committedInsts          100000000                       # Number of Instructions Simulated
system.switch_cpus0.committedOps            122421916                       # Number of Ops (including micro ops) Simulated
system.switch_cpus0.committedInsts_total    100000000                       # Number of Instructions Simulated
system.switch_cpus0.cpi                      1.432059                       # CPI: Cycles Per Instruction
system.switch_cpus0.cpi_total                1.432059                       # CPI: Total CPI of All Threads
system.switch_cpus0.ipc                      0.698295                       # IPC: Instructions Per Cycle
system.switch_cpus0.ipc_total                0.698295                       # IPC: Total IPC of All Threads
system.switch_cpus0.int_regfile_reads       618355431                       # number of integer regfile reads
system.switch_cpus0.int_regfile_writes      186414956                       # number of integer regfile writes
system.switch_cpus0.misc_regfile_reads      145816323                       # number of misc regfile reads
system.switch_cpus0.misc_regfile_writes         32044                       # number of misc regfile writes
system.switch_cpus1.dtb.inst_hits                   0                       # ITB inst hits
system.switch_cpus1.dtb.inst_misses                 0                       # ITB inst misses
system.switch_cpus1.dtb.read_hits                   0                       # DTB read hits
system.switch_cpus1.dtb.read_misses                 0                       # DTB read misses
system.switch_cpus1.dtb.write_hits                  0                       # DTB write hits
system.switch_cpus1.dtb.write_misses                0                       # DTB write misses
system.switch_cpus1.dtb.flush_tlb                   0                       # Number of times complete TLB was flushed
system.switch_cpus1.dtb.flush_tlb_mva               0                       # Number of times TLB was flushed by MVA
system.switch_cpus1.dtb.flush_tlb_mva_asid            0                       # Number of times TLB was flushed by MVA & ASID
system.switch_cpus1.dtb.flush_tlb_asid              0                       # Number of times TLB was flushed by ASID
system.switch_cpus1.dtb.flush_entries               0                       # Number of entries that have been flushed from TLB
system.switch_cpus1.dtb.align_faults                0                       # Number of TLB faults due to alignment restrictions
system.switch_cpus1.dtb.prefetch_faults             0                       # Number of TLB faults due to prefetch
system.switch_cpus1.dtb.domain_faults               0                       # Number of TLB faults due to domain restrictions
system.switch_cpus1.dtb.perms_faults                0                       # Number of TLB faults due to permissions restrictions
system.switch_cpus1.dtb.read_accesses               0                       # DTB read accesses
system.switch_cpus1.dtb.write_accesses              0                       # DTB write accesses
system.switch_cpus1.dtb.inst_accesses               0                       # ITB inst accesses
system.switch_cpus1.dtb.hits                        0                       # DTB hits
system.switch_cpus1.dtb.misses                      0                       # DTB misses
system.switch_cpus1.dtb.accesses                    0                       # DTB accesses
system.switch_cpus1.itb.inst_hits                   0                       # ITB inst hits
system.switch_cpus1.itb.inst_misses                 0                       # ITB inst misses
system.switch_cpus1.itb.read_hits                   0                       # DTB read hits
system.switch_cpus1.itb.read_misses                 0                       # DTB read misses
system.switch_cpus1.itb.write_hits                  0                       # DTB write hits
system.switch_cpus1.itb.write_misses                0                       # DTB write misses
system.switch_cpus1.itb.flush_tlb                   0                       # Number of times complete TLB was flushed
system.switch_cpus1.itb.flush_tlb_mva               0                       # Number of times TLB was flushed by MVA
system.switch_cpus1.itb.flush_tlb_mva_asid            0                       # Number of times TLB was flushed by MVA & ASID
system.switch_cpus1.itb.flush_tlb_asid              0                       # Number of times TLB was flushed by ASID
system.switch_cpus1.itb.flush_entries               0                       # Number of entries that have been flushed from TLB
system.switch_cpus1.itb.align_faults                0                       # Number of TLB faults due to alignment restrictions
system.switch_cpus1.itb.prefetch_faults             0                       # Number of TLB faults due to prefetch
system.switch_cpus1.itb.domain_faults               0                       # Number of TLB faults due to domain restrictions
system.switch_cpus1.itb.perms_faults                0                       # Number of TLB faults due to permissions restrictions
system.switch_cpus1.itb.read_accesses               0                       # DTB read accesses
system.switch_cpus1.itb.write_accesses              0                       # DTB write accesses
system.switch_cpus1.itb.inst_accesses               0                       # ITB inst accesses
system.switch_cpus1.itb.hits                        0                       # DTB hits
system.switch_cpus1.itb.misses                      0                       # DTB misses
system.switch_cpus1.itb.accesses                    0                       # DTB accesses
system.cpu1.workload.num_syscalls                   0                       # Number of system calls
system.switch_cpus1.numCycles               143205855                       # number of cpu cycles simulated
system.switch_cpus1.numWorkItemsStarted             0                       # number of work items this cpu started
system.switch_cpus1.numWorkItemsCompleted            0                       # number of work items this cpu completed
system.switch_cpus1.BPredUnit.lookups        23712007                       # Number of BP lookups
system.switch_cpus1.BPredUnit.condPredicted     19214169                       # Number of conditional branches predicted
system.switch_cpus1.BPredUnit.condIncorrect      2055024                       # Number of conditional branches incorrect
system.switch_cpus1.BPredUnit.BTBLookups      9583046                       # Number of BTB lookups
system.switch_cpus1.BPredUnit.BTBHits         9104333                       # Number of BTB hits
system.switch_cpus1.BPredUnit.BTBCorrect            0                       # Number of correct BTB predictions (this stat may not work properly.
system.switch_cpus1.BPredUnit.usedRAS         2535795                       # Number of times the RAS was used to get a target.
system.switch_cpus1.BPredUnit.RASInCorrect        91575                       # Number of incorrect RAS predictions.
system.switch_cpus1.fetch.icacheStallCycles    103451102                       # Number of cycles fetch is stalled on an Icache miss
system.switch_cpus1.fetch.Insts             130545496                       # Number of instructions fetch has processed
system.switch_cpus1.fetch.Branches           23712007                       # Number of branches that fetch encountered
system.switch_cpus1.fetch.predictedBranches     11640128                       # Number of branches that fetch has predicted taken
system.switch_cpus1.fetch.Cycles             28519966                       # Number of cycles fetch has run and was not squashing or blocked
system.switch_cpus1.fetch.SquashCycles        6668035                       # Number of cycles fetch has spent squashing
system.switch_cpus1.fetch.BlockedCycles       3135476                       # Number of cycles fetch has spent blocked
system.switch_cpus1.fetch.CacheLines         12073300                       # Number of cache lines fetched
system.switch_cpus1.fetch.IcacheSquashes      1658979                       # Number of outstanding Icache misses that were squashed
system.switch_cpus1.fetch.rateDist::samples    139673620                       # Number of instructions fetched each cycle (Total)
system.switch_cpus1.fetch.rateDist::mean     1.141024                       # Number of instructions fetched each cycle (Total)
system.switch_cpus1.fetch.rateDist::stdev     2.555189                       # Number of instructions fetched each cycle (Total)
system.switch_cpus1.fetch.rateDist::underflows            0      0.00%      0.00% # Number of instructions fetched each cycle (Total)
system.switch_cpus1.fetch.rateDist::0       111153654     79.58%     79.58% # Number of instructions fetched each cycle (Total)
system.switch_cpus1.fetch.rateDist::1         2684877      1.92%     81.50% # Number of instructions fetched each cycle (Total)
system.switch_cpus1.fetch.rateDist::2         2047757      1.47%     82.97% # Number of instructions fetched each cycle (Total)
system.switch_cpus1.fetch.rateDist::3         5021080      3.59%     86.56% # Number of instructions fetched each cycle (Total)
system.switch_cpus1.fetch.rateDist::4         1126310      0.81%     87.37% # Number of instructions fetched each cycle (Total)
system.switch_cpus1.fetch.rateDist::5         1622010      1.16%     88.53% # Number of instructions fetched each cycle (Total)
system.switch_cpus1.fetch.rateDist::6         1230299      0.88%     89.41% # Number of instructions fetched each cycle (Total)
system.switch_cpus1.fetch.rateDist::7          770819      0.55%     89.96% # Number of instructions fetched each cycle (Total)
system.switch_cpus1.fetch.rateDist::8        14016814     10.04%    100.00% # Number of instructions fetched each cycle (Total)
system.switch_cpus1.fetch.rateDist::overflows            0      0.00%    100.00% # Number of instructions fetched each cycle (Total)
system.switch_cpus1.fetch.rateDist::min_value            0                       # Number of instructions fetched each cycle (Total)
system.switch_cpus1.fetch.rateDist::max_value            8                       # Number of instructions fetched each cycle (Total)
system.switch_cpus1.fetch.rateDist::total    139673620                       # Number of instructions fetched each cycle (Total)
system.switch_cpus1.fetch.branchRate         0.165580                       # Number of branch fetches per cycle
system.switch_cpus1.fetch.rate               0.911593                       # Number of inst fetches per cycle
system.switch_cpus1.decode.IdleCycles       102239550                       # Number of cycles decode is idle
system.switch_cpus1.decode.BlockedCycles      4715492                       # Number of cycles decode is blocked
system.switch_cpus1.decode.RunCycles         28081635                       # Number of cycles decode is running
system.switch_cpus1.decode.UnblockCycles       112444                       # Number of cycles decode is unblocking
system.switch_cpus1.decode.SquashCycles       4524490                       # Number of cycles decode is squashing
system.switch_cpus1.decode.BranchResolved      4093848                       # Number of times decode resolved a branch
system.switch_cpus1.decode.BranchMispred        42588                       # Number of times decode detected a branch misprediction
system.switch_cpus1.decode.DecodedInsts     157466159                       # Number of instructions handled by decode
system.switch_cpus1.decode.SquashedInsts        81984                       # Number of squashed instructions handled by decode
system.switch_cpus1.rename.SquashCycles       4524490                       # Number of cycles rename is squashing
system.switch_cpus1.rename.IdleCycles       103104987                       # Number of cycles rename is idle
system.switch_cpus1.rename.BlockCycles        1315145                       # Number of cycles rename is blocking
system.switch_cpus1.rename.serializeStallCycles      1933191                       # count of cycles rename stalled for serializing inst
system.switch_cpus1.rename.RunCycles         27319232                       # Number of cycles rename is running
system.switch_cpus1.rename.UnblockCycles      1476567                       # Number of cycles rename is unblocking
system.switch_cpus1.rename.RenamedInsts     155850926                       # Number of instructions processed by rename
system.switch_cpus1.rename.ROBFullEvents        18407                       # Number of times rename has blocked due to ROB full
system.switch_cpus1.rename.IQFullEvents        273228                       # Number of times rename has blocked due to IQ full
system.switch_cpus1.rename.LSQFullEvents       609889                       # Number of times rename has blocked due to LSQ full
system.switch_cpus1.rename.FullRegisterEvents       157506                       # Number of times there has been no free registers
system.switch_cpus1.rename.RenamedOperands    218977257                       # Number of destination operands rename has renamed
system.switch_cpus1.rename.RenameLookups    725886531                       # Number of register rename lookups that rename has made
system.switch_cpus1.rename.int_rename_lookups    725886531                       # Number of integer rename lookups
system.switch_cpus1.rename.CommittedMaps    172887838                       # Number of HB maps that are committed
system.switch_cpus1.rename.UndoneMaps        46089388                       # Number of HB maps that are undone due to squashing
system.switch_cpus1.rename.serializingInsts        38174                       # count of serializing insts renamed
system.switch_cpus1.rename.tempSerializingInsts        21428                       # count of temporary serializing insts renamed
system.switch_cpus1.rename.skidInsts          5039998                       # count of insts added to the skid buffer
system.switch_cpus1.memDep0.insertedLoads     15022871                       # Number of loads inserted to the mem dependence unit.
system.switch_cpus1.memDep0.insertedStores      7342889                       # Number of stores inserted to the mem dependence unit.
system.switch_cpus1.memDep0.conflictingLoads       126863                       # Number of conflicting loads.
system.switch_cpus1.memDep0.conflictingStores      1632874                       # Number of conflicting stores.
system.switch_cpus1.iq.iqInstsAdded         153086988                       # Number of instructions added to the IQ (excludes non-spec)
system.switch_cpus1.iq.iqNonSpecInstsAdded        38148                       # Number of non-speculative instructions added to the IQ
system.switch_cpus1.iq.iqInstsIssued        142215970                       # Number of instructions issued
system.switch_cpus1.iq.iqSquashedInstsIssued       192831                       # Number of squashed instructions issued
system.switch_cpus1.iq.iqSquashedInstsExamined     27910853                       # Number of squashed instructions iterated over during squash; mainly for profiling
system.switch_cpus1.iq.iqSquashedOperandsExamined     60430027                       # Number of squashed operands that are examined and possibly removed from graph
system.switch_cpus1.iq.iqSquashedNonSpecRemoved         4656                       # Number of squashed non-spec instructions that were removed
system.switch_cpus1.iq.issued_per_cycle::samples    139673620                       # Number of insts issued each cycle
system.switch_cpus1.iq.issued_per_cycle::mean     1.018202                       # Number of insts issued each cycle
system.switch_cpus1.iq.issued_per_cycle::stdev     1.565080                       # Number of insts issued each cycle
system.switch_cpus1.iq.issued_per_cycle::underflows            0      0.00%      0.00% # Number of insts issued each cycle
system.switch_cpus1.iq.issued_per_cycle::0     80110751     57.36%     57.36% # Number of insts issued each cycle
system.switch_cpus1.iq.issued_per_cycle::1     25026060     17.92%     75.27% # Number of insts issued each cycle
system.switch_cpus1.iq.issued_per_cycle::2     11698729      8.38%     83.65% # Number of insts issued each cycle
system.switch_cpus1.iq.issued_per_cycle::3      8575912      6.14%     89.79% # Number of insts issued each cycle
system.switch_cpus1.iq.issued_per_cycle::4      7624312      5.46%     95.25% # Number of insts issued each cycle
system.switch_cpus1.iq.issued_per_cycle::5      3025185      2.17%     97.41% # Number of insts issued each cycle
system.switch_cpus1.iq.issued_per_cycle::6      2997611      2.15%     99.56% # Number of insts issued each cycle
system.switch_cpus1.iq.issued_per_cycle::7       464603      0.33%     99.89% # Number of insts issued each cycle
system.switch_cpus1.iq.issued_per_cycle::8       150457      0.11%    100.00% # Number of insts issued each cycle
system.switch_cpus1.iq.issued_per_cycle::overflows            0      0.00%    100.00% # Number of insts issued each cycle
system.switch_cpus1.iq.issued_per_cycle::min_value            0                       # Number of insts issued each cycle
system.switch_cpus1.iq.issued_per_cycle::max_value            8                       # Number of insts issued each cycle
system.switch_cpus1.iq.issued_per_cycle::total    139673620                       # Number of insts issued each cycle
system.switch_cpus1.iq.fu_full::No_OpClass            0      0.00%      0.00% # attempts to use FU when none available
system.switch_cpus1.iq.fu_full::IntAlu         571536     68.88%     68.88% # attempts to use FU when none available
system.switch_cpus1.iq.fu_full::IntMult             0      0.00%     68.88% # attempts to use FU when none available
system.switch_cpus1.iq.fu_full::IntDiv              0      0.00%     68.88% # attempts to use FU when none available
system.switch_cpus1.iq.fu_full::FloatAdd            0      0.00%     68.88% # attempts to use FU when none available
system.switch_cpus1.iq.fu_full::FloatCmp            0      0.00%     68.88% # attempts to use FU when none available
system.switch_cpus1.iq.fu_full::FloatCvt            0      0.00%     68.88% # attempts to use FU when none available
system.switch_cpus1.iq.fu_full::FloatMult            0      0.00%     68.88% # attempts to use FU when none available
system.switch_cpus1.iq.fu_full::FloatDiv            0      0.00%     68.88% # attempts to use FU when none available
system.switch_cpus1.iq.fu_full::FloatSqrt            0      0.00%     68.88% # attempts to use FU when none available
system.switch_cpus1.iq.fu_full::SimdAdd             0      0.00%     68.88% # attempts to use FU when none available
system.switch_cpus1.iq.fu_full::SimdAddAcc            0      0.00%     68.88% # attempts to use FU when none available
system.switch_cpus1.iq.fu_full::SimdAlu             0      0.00%     68.88% # attempts to use FU when none available
system.switch_cpus1.iq.fu_full::SimdCmp             0      0.00%     68.88% # attempts to use FU when none available
system.switch_cpus1.iq.fu_full::SimdCvt             0      0.00%     68.88% # attempts to use FU when none available
system.switch_cpus1.iq.fu_full::SimdMisc            0      0.00%     68.88% # attempts to use FU when none available
system.switch_cpus1.iq.fu_full::SimdMult            0      0.00%     68.88% # attempts to use FU when none available
system.switch_cpus1.iq.fu_full::SimdMultAcc            0      0.00%     68.88% # attempts to use FU when none available
system.switch_cpus1.iq.fu_full::SimdShift            0      0.00%     68.88% # attempts to use FU when none available
system.switch_cpus1.iq.fu_full::SimdShiftAcc            0      0.00%     68.88% # attempts to use FU when none available
system.switch_cpus1.iq.fu_full::SimdSqrt            0      0.00%     68.88% # attempts to use FU when none available
system.switch_cpus1.iq.fu_full::SimdFloatAdd            0      0.00%     68.88% # attempts to use FU when none available
system.switch_cpus1.iq.fu_full::SimdFloatAlu            0      0.00%     68.88% # attempts to use FU when none available
system.switch_cpus1.iq.fu_full::SimdFloatCmp            0      0.00%     68.88% # attempts to use FU when none available
system.switch_cpus1.iq.fu_full::SimdFloatCvt            0      0.00%     68.88% # attempts to use FU when none available
system.switch_cpus1.iq.fu_full::SimdFloatDiv            0      0.00%     68.88% # attempts to use FU when none available
system.switch_cpus1.iq.fu_full::SimdFloatMisc            0      0.00%     68.88% # attempts to use FU when none available
system.switch_cpus1.iq.fu_full::SimdFloatMult            0      0.00%     68.88% # attempts to use FU when none available
system.switch_cpus1.iq.fu_full::SimdFloatMultAcc            0      0.00%     68.88% # attempts to use FU when none available
system.switch_cpus1.iq.fu_full::SimdFloatSqrt            0      0.00%     68.88% # attempts to use FU when none available
system.switch_cpus1.iq.fu_full::MemRead        114315     13.78%     82.65% # attempts to use FU when none available
system.switch_cpus1.iq.fu_full::MemWrite       143928     17.35%    100.00% # attempts to use FU when none available
system.switch_cpus1.iq.fu_full::IprAccess            0      0.00%    100.00% # attempts to use FU when none available
system.switch_cpus1.iq.fu_full::InstPrefetch            0      0.00%    100.00% # attempts to use FU when none available
system.switch_cpus1.iq.FU_type_0::No_OpClass            0      0.00%      0.00% # Type of FU issued
system.switch_cpus1.iq.FU_type_0::IntAlu    119360751     83.93%     83.93% # Type of FU issued
system.switch_cpus1.iq.FU_type_0::IntMult      2138111      1.50%     85.43% # Type of FU issued
system.switch_cpus1.iq.FU_type_0::IntDiv            0      0.00%     85.43% # Type of FU issued
system.switch_cpus1.iq.FU_type_0::FloatAdd            0      0.00%     85.43% # Type of FU issued
system.switch_cpus1.iq.FU_type_0::FloatCmp            0      0.00%     85.43% # Type of FU issued
system.switch_cpus1.iq.FU_type_0::FloatCvt            0      0.00%     85.43% # Type of FU issued
system.switch_cpus1.iq.FU_type_0::FloatMult            0      0.00%     85.43% # Type of FU issued
system.switch_cpus1.iq.FU_type_0::FloatDiv            0      0.00%     85.43% # Type of FU issued
system.switch_cpus1.iq.FU_type_0::FloatSqrt            0      0.00%     85.43% # Type of FU issued
system.switch_cpus1.iq.FU_type_0::SimdAdd            0      0.00%     85.43% # Type of FU issued
system.switch_cpus1.iq.FU_type_0::SimdAddAcc            0      0.00%     85.43% # Type of FU issued
system.switch_cpus1.iq.FU_type_0::SimdAlu            0      0.00%     85.43% # Type of FU issued
system.switch_cpus1.iq.FU_type_0::SimdCmp            0      0.00%     85.43% # Type of FU issued
system.switch_cpus1.iq.FU_type_0::SimdCvt            0      0.00%     85.43% # Type of FU issued
system.switch_cpus1.iq.FU_type_0::SimdMisc            0      0.00%     85.43% # Type of FU issued
system.switch_cpus1.iq.FU_type_0::SimdMult            0      0.00%     85.43% # Type of FU issued
system.switch_cpus1.iq.FU_type_0::SimdMultAcc            0      0.00%     85.43% # Type of FU issued
system.switch_cpus1.iq.FU_type_0::SimdShift            0      0.00%     85.43% # Type of FU issued
system.switch_cpus1.iq.FU_type_0::SimdShiftAcc            0      0.00%     85.43% # Type of FU issued
system.switch_cpus1.iq.FU_type_0::SimdSqrt            0      0.00%     85.43% # Type of FU issued
system.switch_cpus1.iq.FU_type_0::SimdFloatAdd            0      0.00%     85.43% # Type of FU issued
system.switch_cpus1.iq.FU_type_0::SimdFloatAlu            0      0.00%     85.43% # Type of FU issued
system.switch_cpus1.iq.FU_type_0::SimdFloatCmp            0      0.00%     85.43% # Type of FU issued
system.switch_cpus1.iq.FU_type_0::SimdFloatCvt            0      0.00%     85.43% # Type of FU issued
system.switch_cpus1.iq.FU_type_0::SimdFloatDiv            0      0.00%     85.43% # Type of FU issued
system.switch_cpus1.iq.FU_type_0::SimdFloatMisc        16746      0.01%     85.44% # Type of FU issued
system.switch_cpus1.iq.FU_type_0::SimdFloatMult            0      0.00%     85.44% # Type of FU issued
system.switch_cpus1.iq.FU_type_0::SimdFloatMultAcc            0      0.00%     85.44% # Type of FU issued
system.switch_cpus1.iq.FU_type_0::SimdFloatSqrt            0      0.00%     85.44% # Type of FU issued
system.switch_cpus1.iq.FU_type_0::MemRead     13428996      9.44%     94.89% # Type of FU issued
system.switch_cpus1.iq.FU_type_0::MemWrite      7271366      5.11%    100.00% # Type of FU issued
system.switch_cpus1.iq.FU_type_0::IprAccess            0      0.00%    100.00% # Type of FU issued
system.switch_cpus1.iq.FU_type_0::InstPrefetch            0      0.00%    100.00% # Type of FU issued
system.switch_cpus1.iq.FU_type_0::total     142215970                       # Type of FU issued
system.switch_cpus1.iq.rate                  0.993088                       # Inst issue rate
system.switch_cpus1.iq.fu_busy_cnt             829779                       # FU busy when requested
system.switch_cpus1.iq.fu_busy_rate          0.005835                       # FU busy rate (busy events/executed inst)
system.switch_cpus1.iq.int_inst_queue_reads    425128164                       # Number of integer instruction queue reads
system.switch_cpus1.iq.int_inst_queue_writes    181036442                       # Number of integer instruction queue writes
system.switch_cpus1.iq.int_inst_queue_wakeup_accesses    138639921                       # Number of integer instruction queue wakeup accesses
system.switch_cpus1.iq.fp_inst_queue_reads            0                       # Number of floating instruction queue reads
system.switch_cpus1.iq.fp_inst_queue_writes            0                       # Number of floating instruction queue writes
system.switch_cpus1.iq.fp_inst_queue_wakeup_accesses            0                       # Number of floating instruction queue wakeup accesses
system.switch_cpus1.iq.int_alu_accesses     143045749                       # Number of integer alu accesses
system.switch_cpus1.iq.fp_alu_accesses              0                       # Number of floating point alu accesses
system.switch_cpus1.iew.lsq.thread0.forwLoads       349806                       # Number of loads that had data forwarded from stores
system.switch_cpus1.iew.lsq.thread0.invAddrLoads            0                       # Number of loads ignored due to an invalid address
system.switch_cpus1.iew.lsq.thread0.squashedLoads      3644750                       # Number of loads squashed
system.switch_cpus1.iew.lsq.thread0.ignoredResponses         1061                       # Number of memory responses ignored because the instruction is squashed
system.switch_cpus1.iew.lsq.thread0.memOrderViolation          453                       # Number of memory ordering violations
system.switch_cpus1.iew.lsq.thread0.squashedStores       226960                       # Number of stores squashed
system.switch_cpus1.iew.lsq.thread0.invAddrSwpfs            0                       # Number of software prefetches ignored due to an invalid address
system.switch_cpus1.iew.lsq.thread0.blockedLoads            0                       # Number of blocked loads due to partial load-store forwarding
system.switch_cpus1.iew.lsq.thread0.rescheduledLoads            0                       # Number of loads that were rescheduled
system.switch_cpus1.iew.lsq.thread0.cacheBlocked            0                       # Number of times an access to memory failed due to the cache being blocked
system.switch_cpus1.iew.iewIdleCycles               0                       # Number of cycles IEW is idle
system.switch_cpus1.iew.iewSquashCycles       4524490                       # Number of cycles IEW is squashing
system.switch_cpus1.iew.iewBlockCycles         820292                       # Number of cycles IEW is blocking
system.switch_cpus1.iew.iewUnblockCycles        92760                       # Number of cycles IEW is unblocking
system.switch_cpus1.iew.iewDispatchedInsts    153125136                       # Number of instructions dispatched to IQ
system.switch_cpus1.iew.iewDispSquashedInsts        48657                       # Number of squashed instructions skipped by dispatch
system.switch_cpus1.iew.iewDispLoadInsts     15022871                       # Number of dispatched load instructions
system.switch_cpus1.iew.iewDispStoreInsts      7342889                       # Number of dispatched store instructions
system.switch_cpus1.iew.iewDispNonSpecInsts        21402                       # Number of dispatched non-speculative instructions
system.switch_cpus1.iew.iewIQFullEvents         81030                       # Number of times the IQ has become full, causing a stall
system.switch_cpus1.iew.iewLSQFullEvents            0                       # Number of times the LSQ has become full, causing a stall
system.switch_cpus1.iew.memOrderViolationEvents          453                       # Number of memory order violations
system.switch_cpus1.iew.predictedTakenIncorrect      1119396                       # Number of branches that were predicted taken incorrectly
system.switch_cpus1.iew.predictedNotTakenIncorrect      1169125                       # Number of branches that were predicted not taken incorrectly
system.switch_cpus1.iew.branchMispredicts      2288521                       # Number of branch mispredicts detected at execute
system.switch_cpus1.iew.iewExecutedInsts    139654423                       # Number of executed instructions
system.switch_cpus1.iew.iewExecLoadInsts     12904817                       # Number of load instructions executed
system.switch_cpus1.iew.iewExecSquashedInsts      2561541                       # Number of squashed instructions skipped in execute
system.switch_cpus1.iew.exec_swp                    0                       # number of swp insts executed
system.switch_cpus1.iew.exec_nop                    0                       # number of nop insts executed
system.switch_cpus1.iew.exec_refs            20174397                       # number of memory reference insts executed
system.switch_cpus1.iew.exec_branches        19835542                       # Number of branches executed
system.switch_cpus1.iew.exec_stores           7269580                       # Number of stores executed
system.switch_cpus1.iew.exec_rate            0.975201                       # Inst execution rate
system.switch_cpus1.iew.wb_sent             138822384                       # cumulative count of insts sent to commit
system.switch_cpus1.iew.wb_count            138639921                       # cumulative count of insts written-back
system.switch_cpus1.iew.wb_producers         83148823                       # num instructions producing a value
system.switch_cpus1.iew.wb_consumers        230334683                       # num instructions consuming a value
system.switch_cpus1.iew.wb_penalized                0                       # number of instrctions required to write to 'other' IQ
system.switch_cpus1.iew.wb_rate              0.968116                       # insts written-back per cycle
system.switch_cpus1.iew.wb_fanout            0.360991                       # average fanout of values written-back
system.switch_cpus1.iew.wb_penalized_rate            0                       # fraction of instructions written-back that wrote to 'other' IQ
system.switch_cpus1.commit.commitCommittedInsts    101283702                       # The number of committed instructions
system.switch_cpus1.commit.commitCommittedOps    124385972                       # The number of committed instructions
system.switch_cpus1.commit.commitSquashedInsts     28740920                       # The number of squashed insts skipped by commit
system.switch_cpus1.commit.commitNonSpecStalls        33492                       # The number of times commit has been forced to stall to communicate backwards
system.switch_cpus1.commit.branchMispredicts      2058080                       # The number of times a branch was mispredicted
system.switch_cpus1.commit.committed_per_cycle::samples    135149130                       # Number of insts commited each cycle
system.switch_cpus1.commit.committed_per_cycle::mean     0.920361                       # Number of insts commited each cycle
system.switch_cpus1.commit.committed_per_cycle::stdev     1.693243                       # Number of insts commited each cycle
system.switch_cpus1.commit.committed_per_cycle::underflows            0      0.00%      0.00% # Number of insts commited each cycle
system.switch_cpus1.commit.committed_per_cycle::0     84129870     62.25%     62.25% # Number of insts commited each cycle
system.switch_cpus1.commit.committed_per_cycle::1     23867591     17.66%     79.91% # Number of insts commited each cycle
system.switch_cpus1.commit.committed_per_cycle::2     10520572      7.78%     87.69% # Number of insts commited each cycle
system.switch_cpus1.commit.committed_per_cycle::3      5517647      4.08%     91.78% # Number of insts commited each cycle
system.switch_cpus1.commit.committed_per_cycle::4      4389231      3.25%     95.02% # Number of insts commited each cycle
system.switch_cpus1.commit.committed_per_cycle::5      1582460      1.17%     96.20% # Number of insts commited each cycle
system.switch_cpus1.commit.committed_per_cycle::6      1338362      0.99%     97.19% # Number of insts commited each cycle
system.switch_cpus1.commit.committed_per_cycle::7      1002276      0.74%     97.93% # Number of insts commited each cycle
system.switch_cpus1.commit.committed_per_cycle::8      2801121      2.07%    100.00% # Number of insts commited each cycle
system.switch_cpus1.commit.committed_per_cycle::overflows            0      0.00%    100.00% # Number of insts commited each cycle
system.switch_cpus1.commit.committed_per_cycle::min_value            0                       # Number of insts commited each cycle
system.switch_cpus1.commit.committed_per_cycle::max_value            8                       # Number of insts commited each cycle
system.switch_cpus1.commit.committed_per_cycle::total    135149130                       # Number of insts commited each cycle
system.switch_cpus1.commit.committedInsts    101283702                       # Number of instructions committed
system.switch_cpus1.commit.committedOps     124385972                       # Number of ops (including micro ops) committed
system.switch_cpus1.commit.swp_count                0                       # Number of s/w prefetches committed
system.switch_cpus1.commit.refs              18494050                       # Number of memory references committed
system.switch_cpus1.commit.loads             11378121                       # Number of loads committed
system.switch_cpus1.commit.membars              16746                       # Number of memory barriers committed
system.switch_cpus1.commit.branches          17871871                       # Number of branches committed
system.switch_cpus1.commit.fp_insts                 0                       # Number of committed floating point instructions.
system.switch_cpus1.commit.int_insts        112076222                       # Number of committed integer instructions.
system.switch_cpus1.commit.function_calls      2532265                       # Number of function calls committed.
system.switch_cpus1.commit.bw_lim_events      2801121                       # number cycles where commit BW limit reached
system.switch_cpus1.commit.bw_limited               0                       # number of insts not committed due to BW limits
system.switch_cpus1.rob.rob_reads           285474901                       # The number of ROB reads
system.switch_cpus1.rob.rob_writes          310778518                       # The number of ROB writes
system.switch_cpus1.timesIdled                  69867                       # Number of times that the entire CPU went into an idle state and unscheduled itself
system.switch_cpus1.idleCycles                3532235                       # Total number of cycles that the CPU has spent unscheduled due to idling
system.switch_cpus1.committedInsts          101283702                       # Number of Instructions Simulated
system.switch_cpus1.committedOps            124385972                       # Number of Ops (including micro ops) Simulated
system.switch_cpus1.committedInsts_total    101283702                       # Number of Instructions Simulated
system.switch_cpus1.cpi                      1.413908                       # CPI: Cycles Per Instruction
system.switch_cpus1.cpi_total                1.413908                       # CPI: Total CPI of All Threads
system.switch_cpus1.ipc                      0.707260                       # IPC: Instructions Per Cycle
system.switch_cpus1.ipc_total                0.707260                       # IPC: Total IPC of All Threads
[...]
system.cpu1.icache.ReadReq_miss_latency::total      3966436                       # number of ReadReq miss cycles
system.cpu1.icache.demand_miss_latency::switch_cpus1.inst      3966436                       # number of demand (read+write) miss cycles
system.cpu1.icache.demand_miss_latency::total      3966436                       # number of demand (read+write) miss cycles
system.cpu1.icache.overall_miss_latency::switch_cpus1.inst      3966436                       # number of overall miss cycles
system.cpu1.icache.overall_miss_latency::total      3966436                       # number of overall miss cycles
system.cpu1.icache.ReadReq_accesses::switch_cpus1.inst     12073300                       # number of ReadReq accesses(hits+misses)
system.cpu1.icache.ReadReq_accesses::total     12073300                       # number of ReadReq accesses(hits+misses)
system.cpu1.icache.demand_accesses::switch_cpus1.inst     12073300                       # number of demand (read+write) accesses
system.cpu1.icache.demand_accesses::total     12073300                       # number of demand (read+write) accesses
system.cpu1.icache.overall_accesses::switch_cpus1.inst     12073300                       # number of overall (read+write) accesses
system.cpu1.icache.overall_accesses::total     12073300                       # number of overall (read+write) accesses
system.cpu1.icache.ReadReq_miss_rate::switch_cpus1.inst     0.000001                       # miss rate for ReadReq accesses
system.cpu1.icache.ReadReq_miss_rate::total     0.000001                       # miss rate for ReadReq accesses
system.cpu1.icache.demand_miss_rate::switch_cpus1.inst     0.000001                       # miss rate for demand accesses
system.cpu1.icache.demand_miss_rate::total     0.000001                       # miss rate for demand accesses
system.cpu1.icache.overall_miss_rate::switch_cpus1.inst     0.000001                       # miss rate for overall accesses
system.cpu1.icache.overall_miss_rate::total     0.000001                       # miss rate for overall accesses
system.cpu1.icache.ReadReq_avg_miss_latency::switch_cpus1.inst 233319.764706                       # average ReadReq miss latency
system.cpu1.icache.ReadReq_avg_miss_latency::total 233319.764706                       # average ReadReq miss latency
system.cpu1.icache.demand_avg_miss_latency::switch_cpus1.inst 233319.764706                       # average overall miss latency
system.cpu1.icache.demand_avg_miss_latency::total 233319.764706                       # average overall miss latency
system.cpu1.icache.overall_avg_miss_latency::switch_cpus1.inst 233319.764706                       # average overall miss latency
system.cpu1.icache.overall_avg_miss_latency::total 233319.764706                       # average overall miss latency
system.cpu1.icache.blocked_cycles::no_mshrs            0                       # number of cycles access was blocked
system.cpu1.icache.blocked_cycles::no_targets            0                       # number of cycles access was blocked
system.cpu1.icache.blocked::no_mshrs                0                       # number of cycles access was blocked
system.cpu1.icache.blocked::no_targets              0                       # number of cycles access was blocked
system.cpu1.icache.avg_blocked_cycles::no_mshrs          nan                       # average number of cycles each access was blocked
system.cpu1.icache.avg_blocked_cycles::no_targets          nan                       # average number of cycles each access was blocked
system.cpu1.icache.fast_writes                      0                       # number of fast writes performed
system.cpu1.icache.cache_copies                     0                       # number of cache copies performed
system.cpu1.icache.ReadReq_mshr_hits::switch_cpus1.inst            4                       # number of ReadReq MSHR hits
system.cpu1.icache.ReadReq_mshr_hits::total            4                       # number of ReadReq MSHR hits
system.cpu1.icache.demand_mshr_hits::switch_cpus1.inst            4                       # number of demand (read+write) MSHR hits
system.cpu1.icache.demand_mshr_hits::total            4                       # number of demand (read+write) MSHR hits
system.cpu1.icache.overall_mshr_hits::switch_cpus1.inst            4                       # number of overall MSHR hits
system.cpu1.icache.overall_mshr_hits::total            4                       # number of overall MSHR hits
system.cpu1.icache.ReadReq_mshr_misses::switch_cpus1.inst           13                       # number of ReadReq MSHR misses
system.cpu1.icache.ReadReq_mshr_misses::total           13                       # number of ReadReq MSHR misses
system.cpu1.icache.demand_mshr_misses::switch_cpus1.inst           13                       # number of demand (read+write) MSHR misses
system.cpu1.icache.demand_mshr_misses::total           13                       # number of demand (read+write) MSHR misses
system.cpu1.icache.overall_mshr_misses::switch_cpus1.inst           13                       # number of overall MSHR misses
system.cpu1.icache.overall_mshr_misses::total           13                       # number of overall MSHR misses
system.cpu1.icache.ReadReq_mshr_miss_latency::switch_cpus1.inst      3116779                       # number of ReadReq MSHR miss cycles
system.cpu1.icache.ReadReq_mshr_miss_latency::total      3116779                       # number of ReadReq MSHR miss cycles
system.cpu1.icache.demand_mshr_miss_latency::switch_cpus1.inst      3116779                       # number of demand (read+write) MSHR miss cycles
system.cpu1.icache.demand_mshr_miss_latency::total      3116779                       # number of demand (read+write) MSHR miss cycles
system.cpu1.icache.overall_mshr_miss_latency::switch_cpus1.inst      3116779                       # number of overall MSHR miss cycles
system.cpu1.icache.overall_mshr_miss_latency::total      3116779                       # number of overall MSHR miss cycles
system.cpu1.icache.ReadReq_mshr_miss_rate::switch_cpus1.inst     0.000001                       # mshr miss rate for ReadReq accesses
system.cpu1.icache.ReadReq_mshr_miss_rate::total     0.000001                       # mshr miss rate for ReadReq accesses
system.cpu1.icache.demand_mshr_miss_rate::switch_cpus1.inst     0.000001                       # mshr miss rate for demand accesses
system.cpu1.icache.demand_mshr_miss_rate::total     0.000001                       # mshr miss rate for demand accesses
system.cpu1.icache.overall_mshr_miss_rate::switch_cpus1.inst     0.000001                       # mshr miss rate for overall accesses
system.cpu1.icache.overall_mshr_miss_rate::total     0.000001                       # mshr miss rate for overall accesses
system.cpu1.icache.ReadReq_avg_mshr_miss_latency::switch_cpus1.inst 239752.230769                       # average ReadReq mshr miss latency
system.cpu1.icache.ReadReq_avg_mshr_miss_latency::total 239752.230769                       # average ReadReq mshr miss latency
system.cpu1.icache.demand_avg_mshr_miss_latency::switch_cpus1.inst 239752.230769                       # average overall mshr miss latency
system.cpu1.icache.demand_avg_mshr_miss_latency::total 239752.230769                       # average overall mshr miss latency
system.cpu1.icache.overall_avg_mshr_miss_latency::switch_cpus1.inst 239752.230769                       # average overall mshr miss latency
system.cpu1.icache.overall_avg_mshr_miss_latency::total 239752.230769                       # average overall mshr miss latency
system.cpu1.icache.no_allocate_misses               0                       # Number of misses that were no-allocate
system.cpu1.dcache.replacements                 74021                       # number of replacements
system.cpu1.dcache.tagsinuse                      256                       # Cycle average of tags in use
system.cpu1.dcache.total_refs               180566785                       # Total number of references to valid blocks.
system.cpu1.dcache.sampled_refs                 74277                       # Sample count of references to valid blocks.
system.cpu1.dcache.avg_refs               2430.991895                       # Average number of references to valid blocks.
system.cpu1.dcache.warmup_cycle                     0                       # Cycle when the warmup percentage was hit.
system.cpu1.dcache.occ_blocks::switch_cpus1.data   230.745127                       # Average occupied blocks per requestor
system.cpu1.dcache.occ_blocks::cpu1.data    25.254873                       # Average occupied blocks per requestor
system.cpu1.dcache.occ_percent::switch_cpus1.data     0.901348                       # Average percentage of cache occupancy
system.cpu1.dcache.occ_percent::cpu1.data     0.098652                       # Average percentage of cache occupancy
system.cpu1.dcache.occ_percent::total               1                       # Average percentage of cache occupancy
system.cpu1.dcache.ReadReq_hits::switch_cpus1.data      9712908                       # number of ReadReq hits
system.cpu1.dcache.ReadReq_hits::total        9712908                       # number of ReadReq hits
system.cpu1.dcache.WriteReq_hits::switch_cpus1.data      7082437                       # number of WriteReq hits
system.cpu1.dcache.WriteReq_hits::total       7082437                       # number of WriteReq hits
system.cpu1.dcache.LoadLockedReq_hits::switch_cpus1.data        21134                       # number of LoadLockedReq hits
system.cpu1.dcache.LoadLockedReq_hits::total        21134                       # number of LoadLockedReq hits
system.cpu1.dcache.StoreCondReq_hits::switch_cpus1.data        16746                       # number of StoreCondReq hits
system.cpu1.dcache.StoreCondReq_hits::total        16746                       # number of StoreCondReq hits
system.cpu1.dcache.demand_hits::switch_cpus1.data     16795345                       # number of demand (read+write) hits
system.cpu1.dcache.demand_hits::total        16795345                       # number of demand (read+write) hits
system.cpu1.dcache.overall_hits::switch_cpus1.data     16795345                       # number of overall hits
system.cpu1.dcache.overall_hits::total       16795345                       # number of overall hits
system.cpu1.dcache.ReadReq_misses::switch_cpus1.data       180287                       # number of ReadReq misses
system.cpu1.dcache.ReadReq_misses::total       180287                       # number of ReadReq misses
system.cpu1.dcache.demand_misses::switch_cpus1.data       180287                       # number of demand (read+write) misses
system.cpu1.dcache.demand_misses::total        180287                       # number of demand (read+write) misses
system.cpu1.dcache.overall_misses::switch_cpus1.data       180287                       # number of overall misses
system.cpu1.dcache.overall_misses::total       180287                       # number of overall misses
system.cpu1.dcache.ReadReq_miss_latency::switch_cpus1.data  22284865554                       # number of ReadReq miss cycles
system.cpu1.dcache.ReadReq_miss_latency::total  22284865554                       # number of ReadReq miss cycles
system.cpu1.dcache.demand_miss_latency::switch_cpus1.data  22284865554                       # number of demand (read+write) miss cycles
system.cpu1.dcache.demand_miss_latency::total  22284865554                       # number of demand (read+write) miss cycles
system.cpu1.dcache.overall_miss_latency::switch_cpus1.data  22284865554                       # number of overall miss cycles
system.cpu1.dcache.overall_miss_latency::total  22284865554                       # number of overall miss cycles
system.cpu1.dcache.ReadReq_accesses::switch_cpus1.data      9893195                       # number of ReadReq accesses(hits+misses)
system.cpu1.dcache.ReadReq_accesses::total      9893195                       # number of ReadReq accesses(hits+misses)
system.cpu1.dcache.WriteReq_accesses::switch_cpus1.data      7082437                       # number of WriteReq accesses(hits+misses)
system.cpu1.dcache.WriteReq_accesses::total      7082437                       # number of WriteReq accesses(hits+misses)
system.cpu1.dcache.LoadLockedReq_accesses::switch_cpus1.data        21134                       # number of LoadLockedReq accesses(hits+misses)
system.cpu1.dcache.LoadLockedReq_accesses::total        21134                       # number of LoadLockedReq accesses(hits+misses)
system.cpu1.dcache.StoreCondReq_accesses::switch_cpus1.data        16746                       # number of StoreCondReq accesses(hits+misses)
system.cpu1.dcache.StoreCondReq_accesses::total        16746                       # number of StoreCondReq accesses(hits+misses)
system.cpu1.dcache.demand_accesses::switch_cpus1.data     16975632                       # number of demand (read+write) accesses
system.cpu1.dcache.demand_accesses::total     16975632                       # number of demand (read+write) accesses
system.cpu1.dcache.overall_accesses::switch_cpus1.data     16975632                       # number of overall (read+write) accesses
system.cpu1.dcache.overall_accesses::total     16975632                       # number of overall (read+write) accesses
system.cpu1.dcache.ReadReq_miss_rate::switch_cpus1.data     0.018223                       # miss rate for ReadReq accesses
system.cpu1.dcache.ReadReq_miss_rate::total     0.018223                       # miss rate for ReadReq accesses
system.cpu1.dcache.demand_miss_rate::switch_cpus1.data     0.010620                       # miss rate for demand accesses
system.cpu1.dcache.demand_miss_rate::total     0.010620                       # miss rate for demand accesses
system.cpu1.dcache.overall_miss_rate::switch_cpus1.data     0.010620                       # miss rate for overall accesses
system.cpu1.dcache.overall_miss_rate::total     0.010620                       # miss rate for overall accesses
system.cpu1.dcache.ReadReq_avg_miss_latency::switch_cpus1.data 123607.722986                       # average ReadReq miss latency
system.cpu1.dcache.ReadReq_avg_miss_latency::total 123607.722986                       # average ReadReq miss latency
system.cpu1.dcache.demand_avg_miss_latency::switch_cpus1.data 123607.722986                       # average overall miss latency
system.cpu1.dcache.demand_avg_miss_latency::total 123607.722986                       # average overall miss latency
system.cpu1.dcache.overall_avg_miss_latency::switch_cpus1.data 123607.722986                       # average overall miss latency
system.cpu1.dcache.overall_avg_miss_latency::total 123607.722986                       # average overall miss latency
system.cpu1.dcache.blocked_cycles::no_mshrs            0                       # number of cycles access was blocked
system.cpu1.dcache.blocked_cycles::no_targets            0                       # number of cycles access was blocked
system.cpu1.dcache.blocked::no_mshrs                0                       # number of cycles access was blocked
system.cpu1.dcache.blocked::no_targets              0                       # number of cycles access was blocked
system.cpu1.dcache.avg_blocked_cycles::no_mshrs          nan                       # average number of cycles each access was blocked
system.cpu1.dcache.avg_blocked_cycles::no_targets          nan                       # average number of cycles each access was blocked
system.cpu1.dcache.fast_writes                      0                       # number of fast writes performed
system.cpu1.dcache.cache_copies                     0                       # number of cache copies performed
system.cpu1.dcache.writebacks::writebacks        21736                       # number of writebacks
system.cpu1.dcache.writebacks::total            21736                       # number of writebacks
system.cpu1.dcache.ReadReq_mshr_hits::switch_cpus1.data       106266                       # number of ReadReq MSHR hits
system.cpu1.dcache.ReadReq_mshr_hits::total       106266                       # number of ReadReq MSHR hits
system.cpu1.dcache.demand_mshr_hits::switch_cpus1.data       106266                       # number of demand (read+write) MSHR hits
system.cpu1.dcache.demand_mshr_hits::total       106266                       # number of demand (read+write) MSHR hits
system.cpu1.dcache.overall_mshr_hits::switch_cpus1.data       106266                       # number of overall MSHR hits
system.cpu1.dcache.overall_mshr_hits::total       106266                       # number of overall MSHR hits
system.cpu1.dcache.ReadReq_mshr_misses::switch_cpus1.data        74021                       # number of ReadReq MSHR misses
system.cpu1.dcache.ReadReq_mshr_misses::total        74021                       # number of ReadReq MSHR misses
system.cpu1.dcache.demand_mshr_misses::switch_cpus1.data        74021                       # number of demand (read+write) MSHR misses
system.cpu1.dcache.demand_mshr_misses::total        74021                       # number of demand (read+write) MSHR misses
system.cpu1.dcache.overall_mshr_misses::switch_cpus1.data        74021                       # number of overall MSHR misses
system.cpu1.dcache.overall_mshr_misses::total        74021                       # number of overall MSHR misses
system.cpu1.dcache.ReadReq_mshr_miss_latency::switch_cpus1.data   8188306554                       # number of ReadReq MSHR miss cycles
system.cpu1.dcache.ReadReq_mshr_miss_latency::total   8188306554                       # number of ReadReq MSHR miss cycles
system.cpu1.dcache.demand_mshr_miss_latency::switch_cpus1.data   8188306554                       # number of demand (read+write) MSHR miss cycles
system.cpu1.dcache.demand_mshr_miss_latency::total   8188306554                       # number of demand (read+write) MSHR miss cycles
system.cpu1.dcache.overall_mshr_miss_latency::switch_cpus1.data   8188306554                       # number of overall MSHR miss cycles
system.cpu1.dcache.overall_mshr_miss_latency::total   8188306554                       # number of overall MSHR miss cycles
system.cpu1.dcache.ReadReq_mshr_miss_rate::switch_cpus1.data     0.007482                       # mshr miss rate for ReadReq accesses
system.cpu1.dcache.ReadReq_mshr_miss_rate::total     0.007482                       # mshr miss rate for ReadReq accesses
system.cpu1.dcache.demand_mshr_miss_rate::switch_cpus1.data     0.004360                       # mshr miss rate for demand accesses
system.cpu1.dcache.demand_mshr_miss_rate::total     0.004360                       # mshr miss rate for demand accesses
system.cpu1.dcache.overall_mshr_miss_rate::switch_cpus1.data     0.004360                       # mshr miss rate for overall accesses
system.cpu1.dcache.overall_mshr_miss_rate::total     0.004360                       # mshr miss rate for overall accesses
system.cpu1.dcache.ReadReq_avg_mshr_miss_latency::switch_cpus1.data 110621.398711                       # average ReadReq mshr miss latency
system.cpu1.dcache.ReadReq_avg_mshr_miss_latency::total 110621.398711                       # average ReadReq mshr miss latency
system.cpu1.dcache.demand_avg_mshr_miss_latency::switch_cpus1.data 110621.398711                       # average overall mshr miss latency
system.cpu1.dcache.demand_avg_mshr_miss_latency::total 110621.398711                       # average overall mshr miss latency
system.cpu1.dcache.overall_avg_mshr_miss_latency::switch_cpus1.data 110621.398711                       # average overall mshr miss latency
system.cpu1.dcache.overall_avg_mshr_miss_latency::total 110621.398711                       # average overall mshr miss latency
system.cpu1.dcache.no_allocate_misses               0                       # Number of misses that were no-allocate

---------- End Simulation Statistics   ----------
