
---------- Begin Simulation Statistics ----------
sim_seconds                                  0.102454                       # Number of seconds simulated
sim_ticks                                102454494327                       # Number of ticks simulated
final_tick                               630531203829                       # Number of ticks from beginning of simulation (restored from checkpoints and never reset)
sim_freq                                 1000000000000                       # Frequency of simulated ticks
host_inst_rate                                 127187                       # Simulator instruction rate (inst/s)
host_op_rate                                   160639                       # Simulator op (including micro ops) rate (op/s)
host_tick_rate                                5938617                       # Simulator tick rate (ticks/s)
host_mem_usage                               16884592                       # Number of bytes of host memory used
host_seconds                                 17252.25                       # Real time elapsed on the host
sim_insts                                  2194254548                       # Number of instructions simulated
sim_ops                                    2771379743                       # Number of ops (including micro ops) simulated
system.physmem.bytes_read::switch_cpus0.inst         1792                       # Number of bytes read from this memory
system.physmem.bytes_read::switch_cpus0.data      4947072                       # Number of bytes read from this memory
system.physmem.bytes_read::switch_cpus1.inst         1664                       # Number of bytes read from this memory
system.physmem.bytes_read::switch_cpus1.data      6276096                       # Number of bytes read from this memory
system.physmem.bytes_read::total             11226624                       # Number of bytes read from this memory
system.physmem.bytes_inst_read::switch_cpus0.inst         1792                       # Number of instructions bytes read from this memory
system.physmem.bytes_inst_read::switch_cpus1.inst         1664                       # Number of instructions bytes read from this memory
system.physmem.bytes_inst_read::total            3456                       # Number of instructions bytes read from this memory
system.physmem.bytes_written::writebacks      2825856                       # Number of bytes written to this memory
system.physmem.bytes_written::total           2825856                       # Number of bytes written to this memory
system.physmem.num_reads::switch_cpus0.inst           14                       # Number of read requests responded to by this memory
system.physmem.num_reads::switch_cpus0.data        38649                       # Number of read requests responded to by this memory
system.physmem.num_reads::switch_cpus1.inst           13                       # Number of read requests responded to by this memory
system.physmem.num_reads::switch_cpus1.data        49032                       # Number of read requests responded to by this memory
system.physmem.num_reads::total                 87708                       # Number of read requests responded to by this memory
system.physmem.num_writes::writebacks           22077                       # Number of write requests responded to by this memory
system.physmem.num_writes::functional               0                       # Number of write requests responded to by this memory
system.physmem.num_writes::interrupt                0                       # Number of write requests responded to by this memory
system.physmem.num_writes::switch_cpus0.dtb.walker            0                       # Number of write requests responded to by this memory
system.physmem.num_writes::switch_cpus0.itb.walker            0                       # Number of write requests responded to by this memory
system.physmem.num_writes::switch_cpus0.inst            0                       # Number of write requests responded to by this memory
system.physmem.num_writes::switch_cpus0.data            0                       # Number of write requests responded to by this memory
system.physmem.num_writes::switch_cpus1.dtb.walker            0                       # Number of write requests responded to by this memory
system.physmem.num_writes::switch_cpus1.itb.walker            0                       # Number of write requests responded to by this memory
system.physmem.num_writes::switch_cpus1.inst            0                       # Number of write requests responded to by this memory
system.physmem.num_writes::switch_cpus1.data            0                       # Number of write requests responded to by this memory
system.physmem.num_writes::cpu0.dtb.walker            0                       # Number of write requests responded to by this memory
system.physmem.num_writes::cpu0.itb.walker            0                       # Number of write requests responded to by this memory
system.physmem.num_writes::cpu0.inst                0                       # Number of write requests responded to by this memory
system.physmem.num_writes::cpu0.data                0                       # Number of write requests responded to by this memory
system.physmem.num_writes::cpu1.dtb.walker            0                       # Number of write requests responded to by this memory
system.physmem.num_writes::cpu1.itb.walker            0                       # Number of write requests responded to by this memory
system.physmem.num_writes::cpu1.inst                0                       # Number of write requests responded to by this memory
system.physmem.num_writes::cpu1.data                0                       # Number of write requests responded to by this memory
system.physmem.num_writes::total                22077                       # Number of write requests responded to by this memory
system.physmem.bw_read::switch_cpus0.inst        17491                       # Total read bandwidth from this memory (bytes/s)
system.physmem.bw_read::switch_cpus0.data     48285554                       # Total read bandwidth from this memory (bytes/s)
system.physmem.bw_read::switch_cpus1.inst        16241                       # Total read bandwidth from this memory (bytes/s)
system.physmem.bw_read::switch_cpus1.data     61257401                       # Total read bandwidth from this memory (bytes/s)
system.physmem.bw_read::total               109576686                       # Total read bandwidth from this memory (bytes/s)
system.physmem.bw_inst_read::switch_cpus0.inst        17491                       # Instruction read bandwidth from this memory (bytes/s)
system.physmem.bw_inst_read::switch_cpus1.inst        16241                       # Instruction read bandwidth from this memory (bytes/s)
system.physmem.bw_inst_read::total              33732                       # Instruction read bandwidth from this memory (bytes/s)
system.physmem.bw_write::writebacks          27581572                       # Write bandwidth from this memory (bytes/s)
system.physmem.bw_write::total               27581572                       # Write bandwidth from this memory (bytes/s)
system.physmem.bw_total::writebacks          27581572                       # Total bandwidth to/from this memory (bytes/s)
system.physmem.bw_total::switch_cpus0.inst        17491                       # Total bandwidth to/from this memory (bytes/s)
system.physmem.bw_total::switch_cpus0.data     48285554                       # Total bandwidth to/from this memory (bytes/s)
system.physmem.bw_total::switch_cpus1.inst        16241                       # Total bandwidth to/from this memory (bytes/s)
system.physmem.bw_total::switch_cpus1.data     61257401                       # Total bandwidth to/from this memory (bytes/s)
system.physmem.bw_total::total              137158258                       # Total bandwidth to/from this memory (bytes/s)
system.switch_cpus0.dtb.inst_hits                   0                       # ITB inst hits
system.switch_cpus0.dtb.inst_misses                 0                       # ITB inst misses
system.switch_cpus0.dtb.read_hits                   0                       # DTB read hits
system.switch_cpus0.dtb.read_misses                 0                       # DTB read misses
system.switch_cpus0.dtb.write_hits                  0                       # DTB write hits
system.switch_cpus0.dtb.write_misses                0                       # DTB write misses
system.switch_cpus0.dtb.flush_tlb                   0                       # Number of times complete TLB was flushed
system.switch_cpus0.dtb.flush_tlb_mva               0                       # Number of times TLB was flushed by MVA
system.switch_cpus0.dtb.flush_tlb_mva_asid            0                       # Number of times TLB was flushed by MVA & ASID
system.switch_cpus0.dtb.flush_tlb_asid              0                       # Number of times TLB was flushed by ASID
system.switch_cpus0.dtb.flush_entries               0                       # Number of entries that have been flushed from TLB
system.switch_cpus0.dtb.align_faults                0                       # Number of TLB faults due to alignment restrictions
system.switch_cpus0.dtb.prefetch_faults             0                       # Number of TLB faults due to prefetch
system.switch_cpus0.dtb.domain_faults               0                       # Number of TLB faults due to domain restrictions
system.switch_cpus0.dtb.perms_faults                0                       # Number of TLB faults due to permissions restrictions
system.switch_cpus0.dtb.read_accesses               0                       # DTB read accesses
system.switch_cpus0.dtb.write_accesses              0                       # DTB write accesses
system.switch_cpus0.dtb.inst_accesses               0                       # ITB inst accesses
system.switch_cpus0.dtb.hits                        0                       # DTB hits
system.switch_cpus0.dtb.misses                      0                       # DTB misses
system.switch_cpus0.dtb.accesses                    0                       # DTB accesses
system.switch_cpus0.itb.inst_hits                   0                       # ITB inst hits
system.switch_cpus0.itb.inst_misses                 0                       # ITB inst misses
system.switch_cpus0.itb.read_hits                   0                       # DTB read hits
system.switch_cpus0.itb.read_misses                 0                       # DTB read misses
system.switch_cpus0.itb.write_hits                  0                       # DTB write hits
system.switch_cpus0.itb.write_misses                0                       # DTB write misses
system.switch_cpus0.itb.flush_tlb                   0                       # Number of times complete TLB was flushed
system.switch_cpus0.itb.flush_tlb_mva               0                       # Number of times TLB was flushed by MVA
system.switch_cpus0.itb.flush_tlb_mva_asid            0                       # Number of times TLB was flushed by MVA & ASID
system.switch_cpus0.itb.flush_tlb_asid              0                       # Number of times TLB was flushed by ASID
system.switch_cpus0.itb.flush_entries               0                       # Number of entries that have been flushed from TLB
system.switch_cpus0.itb.align_faults                0                       # Number of TLB faults due to alignment restrictions
system.switch_cpus0.itb.prefetch_faults             0                       # Number of TLB faults due to prefetch
system.switch_cpus0.itb.domain_faults               0                       # Number of TLB faults due to domain restrictions
system.switch_cpus0.itb.perms_faults                0                       # Number of TLB faults due to permissions restrictions
system.switch_cpus0.itb.read_accesses               0                       # DTB read accesses
system.switch_cpus0.itb.write_accesses              0                       # DTB write accesses
system.switch_cpus0.itb.inst_accesses               0                       # ITB inst accesses
system.switch_cpus0.itb.hits                        0                       # DTB hits
system.switch_cpus0.itb.misses                      0                       # DTB misses
system.switch_cpus0.itb.accesses                    0                       # DTB accesses
system.cpu0.workload.num_syscalls                   0                       # Number of system calls
system.switch_cpus0.numCycles               245694232                       # number of cpu cycles simulated
system.switch_cpus0.numWorkItemsStarted             0                       # number of work items this cpu started
system.switch_cpus0.numWorkItemsCompleted            0                       # number of work items this cpu completed
system.switch_cpus0.BPredUnit.lookups        21502061                       # Number of BP lookups
system.switch_cpus0.BPredUnit.condPredicted     17431010                       # Number of conditional branches predicted
system.switch_cpus0.BPredUnit.condIncorrect      1976867                       # Number of conditional branches incorrect
system.switch_cpus0.BPredUnit.BTBLookups      8756766                       # Number of BTB lookups
system.switch_cpus0.BPredUnit.BTBHits         8143574                       # Number of BTB hits
system.switch_cpus0.BPredUnit.BTBCorrect            0                       # Number of correct BTB predictions (this stat may not work properly.
system.switch_cpus0.BPredUnit.usedRAS         2333115                       # Number of times the RAS was used to get a target.
system.switch_cpus0.BPredUnit.RASInCorrect        93538                       # Number of incorrect RAS predictions.
system.switch_cpus0.fetch.icacheStallCycles    186269266                       # Number of cycles fetch is stalled on an Icache miss
system.switch_cpus0.fetch.Insts             119878306                       # Number of instructions fetch has processed
system.switch_cpus0.fetch.Branches           21502061                       # Number of branches that fetch encountered
system.switch_cpus0.fetch.predictedBranches     10476689                       # Number of branches that fetch has predicted taken
system.switch_cpus0.fetch.Cycles             26383742                       # Number of cycles fetch has run and was not squashing or blocked
system.switch_cpus0.fetch.SquashCycles        6027500                       # Number of cycles fetch has spent squashing
system.switch_cpus0.fetch.BlockedCycles       5277147                       # Number of cycles fetch has spent blocked
system.switch_cpus0.fetch.MiscStallCycles            1                       # Number of cycles fetch has spent waiting on interrupts, or bad addresses, or out of MSHRs
system.switch_cpus0.fetch.PendingTrapStallCycles           36                       # Number of stall cycles due to pending traps
system.switch_cpus0.fetch.CacheLines         11507481                       # Number of cache lines fetched
system.switch_cpus0.fetch.IcacheSquashes      1975206                       # Number of outstanding Icache misses that were squashed
system.switch_cpus0.fetch.rateDist::samples    221955294                       # Number of instructions fetched each cycle (Total)
system.switch_cpus0.fetch.rateDist::mean     0.663369                       # Number of instructions fetched each cycle (Total)
system.switch_cpus0.fetch.rateDist::stdev     2.022101                       # Number of instructions fetched each cycle (Total)
system.switch_cpus0.fetch.rateDist::underflows            0      0.00%      0.00% # Number of instructions fetched each cycle (Total)
system.switch_cpus0.fetch.rateDist::0       195571552     88.11%     88.11% # Number of instructions fetched each cycle (Total)
system.switch_cpus0.fetch.rateDist::1         1837468      0.83%     88.94% # Number of instructions fetched each cycle (Total)
system.switch_cpus0.fetch.rateDist::2         3335106      1.50%     90.44% # Number of instructions fetched each cycle (Total)
system.switch_cpus0.fetch.rateDist::3         3089377      1.39%     91.84% # Number of instructions fetched each cycle (Total)
system.switch_cpus0.fetch.rateDist::4         1965115      0.89%     92.72% # Number of instructions fetched each cycle (Total)
system.switch_cpus0.fetch.rateDist::5         1615905      0.73%     93.45% # Number of instructions fetched each cycle (Total)
system.switch_cpus0.fetch.rateDist::6          923914      0.42%     93.87% # Number of instructions fetched each cycle (Total)
system.switch_cpus0.fetch.rateDist::7          955797      0.43%     94.30% # Number of instructions fetched each cycle (Total)
system.switch_cpus0.fetch.rateDist::8        12661060      5.70%    100.00% # Number of instructions fetched each cycle (Total)
system.switch_cpus0.fetch.rateDist::overflows            0      0.00%    100.00% # Number of instructions fetched each cycle (Total)
system.switch_cpus0.fetch.rateDist::min_value            0                       # Number of instructions fetched each cycle (Total)
system.switch_cpus0.fetch.rateDist::max_value            8                       # Number of instructions fetched each cycle (Total)
system.switch_cpus0.fetch.rateDist::total    221955294                       # Number of instructions fetched each cycle (Total)
system.switch_cpus0.fetch.branchRate         0.087516                       # Number of branch fetches per cycle
system.switch_cpus0.fetch.rate               0.487917                       # Number of inst fetches per cycle
system.switch_cpus0.decode.IdleCycles       184378425                       # Number of cycles decode is idle
system.switch_cpus0.decode.BlockedCycles      7185181                       # Number of cycles decode is blocked
system.switch_cpus0.decode.RunCycles         26322028                       # Number of cycles decode is running
system.switch_cpus0.decode.UnblockCycles        44783                       # Number of cycles decode is unblocking
system.switch_cpus0.decode.SquashCycles       4024876                       # Number of cycles decode is squashing
system.switch_cpus0.decode.BranchResolved      3734205                       # Number of times decode resolved a branch
system.switch_cpus0.decode.BranchMispred          226                       # Number of times decode detected a branch misprediction
system.switch_cpus0.decode.DecodedInsts     147140397                       # Number of instructions handled by decode
system.switch_cpus0.decode.SquashedInsts         1307                       # Number of squashed instructions handled by decode
system.switch_cpus0.rename.SquashCycles       4024876                       # Number of cycles rename is squashing
system.switch_cpus0.rename.IdleCycles       184849823                       # Number of cycles rename is idle
system.switch_cpus0.rename.BlockCycles        1296138                       # Number of cycles rename is blocking
system.switch_cpus0.rename.serializeStallCycles      4813117                       # count of cycles rename stalled for serializing inst
system.switch_cpus0.rename.RunCycles         25866268                       # Number of cycles rename is running
system.switch_cpus0.rename.UnblockCycles      1105071                       # Number of cycles rename is unblocking
system.switch_cpus0.rename.RenamedInsts     147017530                       # Number of instructions processed by rename
system.switch_cpus0.rename.IQFullEvents        177243                       # Number of times rename has blocked due to IQ full
system.switch_cpus0.rename.LSQFullEvents       478946                       # Number of times rename has blocked due to LSQ full
system.switch_cpus0.rename.RenamedOperands    208545578                       # Number of destination operands rename has renamed
system.switch_cpus0.rename.RenameLookups    684819171                       # Number of register rename lookups that rename has made
system.switch_cpus0.rename.int_rename_lookups    684819171                       # Number of integer rename lookups
system.switch_cpus0.rename.CommittedMaps    171704513                       # Number of HB maps that are committed
system.switch_cpus0.rename.UndoneMaps        36841056                       # Number of HB maps that are undone due to squashing
system.switch_cpus0.rename.serializingInsts        33814                       # count of serializing insts renamed
system.switch_cpus0.rename.tempSerializingInsts        16907                       # count of temporary serializing insts renamed
system.switch_cpus0.rename.skidInsts          4097637                       # count of insts added to the skid buffer
system.switch_cpus0.memDep0.insertedLoads     13864396                       # Number of loads inserted to the mem dependence unit.
system.switch_cpus0.memDep0.insertedStores      7183868                       # Number of stores inserted to the mem dependence unit.
system.switch_cpus0.memDep0.conflictingLoads        82868                       # Number of conflicting loads.
system.switch_cpus0.memDep0.conflictingStores      1602706                       # Number of conflicting stores.
system.switch_cpus0.iq.iqInstsAdded         146055182                       # Number of instructions added to the IQ (excludes non-spec)
system.switch_cpus0.iq.iqNonSpecInstsAdded        33814                       # Number of non-speculative instructions added to the IQ
system.switch_cpus0.iq.iqInstsIssued        137959251                       # Number of instructions issued
system.switch_cpus0.iq.iqSquashedInstsIssued       117481                       # Number of squashed instructions issued
system.switch_cpus0.iq.iqSquashedInstsExamined     21993536                       # Number of squashed instructions iterated over during squash; mainly for profiling
system.switch_cpus0.iq.iqSquashedOperandsExamined     46185160                       # Number of squashed operands that are examined and possibly removed from graph
system.switch_cpus0.iq.issued_per_cycle::samples    221955294                       # Number of insts issued each cycle
system.switch_cpus0.iq.issued_per_cycle::mean     0.621563                       # Number of insts issued each cycle
system.switch_cpus0.iq.issued_per_cycle::stdev     1.295586                       # Number of insts issued each cycle
system.switch_cpus0.iq.issued_per_cycle::underflows            0      0.00%      0.00% # Number of insts issued each cycle
system.switch_cpus0.iq.issued_per_cycle::0    162470642     73.20%     73.20% # Number of insts issued each cycle
system.switch_cpus0.iq.issued_per_cycle::1     25167490     11.34%     84.54% # Number of insts issued each cycle
system.switch_cpus0.iq.issued_per_cycle::2     13553968      6.11%     90.65% # Number of insts issued each cycle
system.switch_cpus0.iq.issued_per_cycle::3      6867588      3.09%     93.74% # Number of insts issued each cycle
system.switch_cpus0.iq.issued_per_cycle::4      8183720      3.69%     97.43% # Number of insts issued each cycle
system.switch_cpus0.iq.issued_per_cycle::5      2647786      1.19%     98.62% # Number of insts issued each cycle
system.switch_cpus0.iq.issued_per_cycle::6      2483449      1.12%     99.74% # Number of insts issued each cycle
system.switch_cpus0.iq.issued_per_cycle::7       438651      0.20%     99.94% # Number of insts issued each cycle
system.switch_cpus0.iq.issued_per_cycle::8       142000      0.06%    100.00% # Number of insts issued each cycle
system.switch_cpus0.iq.issued_per_cycle::overflows            0      0.00%    100.00% # Number of insts issued each cycle
system.switch_cpus0.iq.issued_per_cycle::min_value            0                       # Number of insts issued each cycle
system.switch_cpus0.iq.issued_per_cycle::max_value            8                       # Number of insts issued each cycle
system.switch_cpus0.iq.issued_per_cycle::total    221955294                       # Number of insts issued each cycle
system.switch_cpus0.iq.fu_full::No_OpClass            0      0.00%      0.00% # attempts to use FU when none available
system.switch_cpus0.iq.fu_full::IntAlu         416620     59.70%     59.70% # attempts to use FU when none available
system.switch_cpus0.iq.fu_full::IntMult             0      0.00%     59.70% # attempts to use FU when none available
system.switch_cpus0.iq.fu_full::IntDiv              0      0.00%     59.70% # attempts to use FU when none available
system.switch_cpus0.iq.fu_full::FloatAdd            0      0.00%     59.70% # attempts to use FU when none available
system.switch_cpus0.iq.fu_full::FloatCmp            0      0.00%     59.70% # attempts to use FU when none available
system.switch_cpus0.iq.fu_full::FloatCvt            0      0.00%     59.70% # attempts to use FU when none available
system.switch_cpus0.iq.fu_full::FloatMult            0      0.00%     59.70% # attempts to use FU when none available
system.switch_cpus0.iq.fu_full::FloatDiv            0      0.00%     59.70% # attempts to use FU when none available
system.switch_cpus0.iq.fu_full::FloatSqrt            0      0.00%     59.70% # attempts to use FU when none available
system.switch_cpus0.iq.fu_full::SimdAdd             0      0.00%     59.70% # attempts to use FU when none available
system.switch_cpus0.iq.fu_full::SimdAddAcc            0      0.00%     59.70% # attempts to use FU when none available
system.switch_cpus0.iq.fu_full::SimdAlu             0      0.00%     59.70% # attempts to use FU when none available
system.switch_cpus0.iq.fu_full::SimdCmp             0      0.00%     59.70% # attempts to use FU when none available
system.switch_cpus0.iq.fu_full::SimdCvt             0      0.00%     59.70% # attempts to use FU when none available
system.switch_cpus0.iq.fu_full::SimdMisc            0      0.00%     59.70% # attempts to use FU when none available
system.switch_cpus0.iq.fu_full::SimdMult            0      0.00%     59.70% # attempts to use FU when none available
system.switch_cpus0.iq.fu_full::SimdMultAcc            0      0.00%     59.70% # attempts to use FU when none available
system.switch_cpus0.iq.fu_full::SimdShift            0      0.00%     59.70% # attempts to use FU when none available
system.switch_cpus0.iq.fu_full::SimdShiftAcc            0      0.00%     59.70% # attempts to use FU when none available
system.switch_cpus0.iq.fu_full::SimdSqrt            0      0.00%     59.70% # attempts to use FU when none available
system.switch_cpus0.iq.fu_full::SimdFloatAdd            0      0.00%     59.70% # attempts to use FU when none available
system.switch_cpus0.iq.fu_full::SimdFloatAlu            0      0.00%     59.70% # attempts to use FU when none available
system.switch_cpus0.iq.fu_full::SimdFloatCmp            0      0.00%     59.70% # attempts to use FU when none available
system.switch_cpus0.iq.fu_full::SimdFloatCvt            0      0.00%     59.70% # attempts to use FU when none available
system.switch_cpus0.iq.fu_full::SimdFloatDiv            0      0.00%     59.70% # attempts to use FU when none available
system.switch_cpus0.iq.fu_full::SimdFloatMisc            0      0.00%     59.70% # attempts to use FU when none available
system.switch_cpus0.iq.fu_full::SimdFloatMult            0      0.00%     59.70% # attempts to use FU when none available
system.switch_cpus0.iq.fu_full::SimdFloatMultAcc            0      0.00%     59.70% # attempts to use FU when none available
system.switch_cpus0.iq.fu_full::SimdFloatSqrt            0      0.00%     59.70% # attempts to use FU when none available
system.switch_cpus0.iq.fu_full::MemRead        143386     20.55%     80.25% # attempts to use FU when none available
system.switch_cpus0.iq.fu_full::MemWrite       137794     19.75%    100.00% # attempts to use FU when none available
system.switch_cpus0.iq.fu_full::IprAccess            0      0.00%    100.00% # attempts to use FU when none available
system.switch_cpus0.iq.fu_full::InstPrefetch            0      0.00%    100.00% # attempts to use FU when none available
system.switch_cpus0.iq.FU_type_0::No_OpClass            0      0.00%      0.00% # Type of FU issued
system.switch_cpus0.iq.FU_type_0::IntAlu    116014165     84.09%     84.09% # Type of FU issued
system.switch_cpus0.iq.FU_type_0::IntMult      1978290      1.43%     85.53% # Type of FU issued
system.switch_cpus0.iq.FU_type_0::IntDiv            0      0.00%     85.53% # Type of FU issued
system.switch_cpus0.iq.FU_type_0::FloatAdd            0      0.00%     85.53% # Type of FU issued
system.switch_cpus0.iq.FU_type_0::FloatCmp            0      0.00%     85.53% # Type of FU issued
system.switch_cpus0.iq.FU_type_0::FloatCvt            0      0.00%     85.53% # Type of FU issued
system.switch_cpus0.iq.FU_type_0::FloatMult            0      0.00%     85.53% # Type of FU issued
system.switch_cpus0.iq.FU_type_0::FloatDiv            0      0.00%     85.53% # Type of FU issued
system.switch_cpus0.iq.FU_type_0::FloatSqrt            0      0.00%     85.53% # Type of FU issued
system.switch_cpus0.iq.FU_type_0::SimdAdd            0      0.00%     85.53% # Type of FU issued
system.switch_cpus0.iq.FU_type_0::SimdAddAcc            0      0.00%     85.53% # Type of FU issued
system.switch_cpus0.iq.FU_type_0::SimdAlu            0      0.00%     85.53% # Type of FU issued
system.switch_cpus0.iq.FU_type_0::SimdCmp            0      0.00%     85.53% # Type of FU issued
system.switch_cpus0.iq.FU_type_0::SimdCvt            0      0.00%     85.53% # Type of FU issued
system.switch_cpus0.iq.FU_type_0::SimdMisc            0      0.00%     85.53% # Type of FU issued
system.switch_cpus0.iq.FU_type_0::SimdMult            0      0.00%     85.53% # Type of FU issued
system.switch_cpus0.iq.FU_type_0::SimdMultAcc            0      0.00%     85.53% # Type of FU issued
system.switch_cpus0.iq.FU_type_0::SimdShift            0      0.00%     85.53% # Type of FU issued
system.switch_cpus0.iq.FU_type_0::SimdShiftAcc            0      0.00%     85.53% # Type of FU issued
system.switch_cpus0.iq.FU_type_0::SimdSqrt            0      0.00%     85.53% # Type of FU issued
system.switch_cpus0.iq.FU_type_0::SimdFloatAdd            0      0.00%     85.53% # Type of FU issued
system.switch_cpus0.iq.FU_type_0::SimdFloatAlu            0      0.00%     85.53% # Type of FU issued
system.switch_cpus0.iq.FU_type_0::SimdFloatCmp            0      0.00%     85.53% # Type of FU issued
system.switch_cpus0.iq.FU_type_0::SimdFloatCvt            0      0.00%     85.53% # Type of FU issued
system.switch_cpus0.iq.FU_type_0::SimdFloatDiv            0      0.00%     85.53% # Type of FU issued
system.switch_cpus0.iq.FU_type_0::SimdFloatMisc        16907      0.01%     85.54% # Type of FU issued
system.switch_cpus0.iq.FU_type_0::SimdFloatMult            0      0.00%     85.54% # Type of FU issued
system.switch_cpus0.iq.FU_type_0::SimdFloatMultAcc            0      0.00%     85.54% # Type of FU issued
system.switch_cpus0.iq.FU_type_0::SimdFloatSqrt            0      0.00%     85.54% # Type of FU issued
system.switch_cpus0.iq.FU_type_0::MemRead     12788752      9.27%     94.81% # Type of FU issued
system.switch_cpus0.iq.FU_type_0::MemWrite      7161137      5.19%    100.00% # Type of FU issued
system.switch_cpus0.iq.FU_type_0::IprAccess            0      0.00%    100.00% # Type of FU issued
system.switch_cpus0.iq.FU_type_0::InstPrefetch            0      0.00%    100.00% # Type of FU issued
system.switch_cpus0.iq.FU_type_0::total     137959251                       # Type of FU issued
system.switch_cpus0.iq.rate                  0.561508                       # Inst issue rate
system.switch_cpus0.iq.fu_busy_cnt             697800                       # FU busy when requested
system.switch_cpus0.iq.fu_busy_rate          0.005058                       # FU busy rate (busy events/executed inst)
system.switch_cpus0.iq.int_inst_queue_reads    498689076                       # Number of integer instruction queue reads
system.switch_cpus0.iq.int_inst_queue_writes    168082739                       # Number of integer instruction queue writes
system.switch_cpus0.iq.int_inst_queue_wakeup_accesses    134978070                       # Number of integer instruction queue wakeup accesses
system.switch_cpus0.iq.fp_inst_queue_reads            0                       # Number of floating instruction queue reads
system.switch_cpus0.iq.fp_inst_queue_writes            0                       # Number of floating instruction queue writes
system.switch_cpus0.iq.fp_inst_queue_wakeup_accesses            0                       # Number of floating instruction queue wakeup accesses
system.switch_cpus0.iq.int_alu_accesses     138657051                       # Number of integer alu accesses
system.switch_cpus0.iq.fp_alu_accesses              0                       # Number of floating point alu accesses
system.switch_cpus0.iew.lsq.thread0.forwLoads       269307                       # Number of loads that had data forwarded from stores
system.switch_cpus0.iew.lsq.thread0.invAddrLoads            0                       # Number of loads ignored due to an invalid address
system.switch_cpus0.iew.lsq.thread0.squashedLoads      2670975                       # Number of loads squashed
system.switch_cpus0.iew.lsq.thread0.ignoredResponses            4                       # Number of memory responses ignored because the instruction is squashed
system.switch_cpus0.iew.lsq.thread0.memOrderViolation          207                       # Number of memory ordering violations
system.switch_cpus0.iew.lsq.thread0.squashedStores        92840                       # Number of stores squashed
system.switch_cpus0.iew.lsq.thread0.invAddrSwpfs            0                       # Number of software prefetches ignored due to an invalid address
system.switch_cpus0.iew.lsq.thread0.blockedLoads            0                       # Number of blocked loads due to partial load-store forwarding
system.switch_cpus0.iew.lsq.thread0.rescheduledLoads            0                       # Number of loads that were rescheduled
system.switch_cpus0.iew.lsq.thread0.cacheBlocked            0                       # Number of times an access to memory failed due to the cache being blocked
system.switch_cpus0.iew.iewIdleCycles               0                       # Number of cycles IEW is idle
system.switch_cpus0.iew.iewSquashCycles       4024876                       # Number of cycles IEW is squashing
system.switch_cpus0.iew.iewBlockCycles         916230                       # Number of cycles IEW is blocking
system.switch_cpus0.iew.iewUnblockCycles       113993                       # Number of cycles IEW is unblocking
system.switch_cpus0.iew.iewDispatchedInsts    146088999                       # Number of instructions dispatched to IQ
system.switch_cpus0.iew.iewDispSquashedInsts         8392                       # Number of squashed instructions skipped by dispatch
system.switch_cpus0.iew.iewDispLoadInsts     13864396                       # Number of dispatched load instructions
system.switch_cpus0.iew.iewDispStoreInsts      7183868                       # Number of dispatched store instructions
system.switch_cpus0.iew.iewDispNonSpecInsts        16907                       # Number of dispatched non-speculative instructions
system.switch_cpus0.iew.iewIQFullEvents         99498                       # Number of times the IQ has become full, causing a stall
system.switch_cpus0.iew.iewLSQFullEvents            0                       # Number of times the LSQ has become full, causing a stall
system.switch_cpus0.iew.memOrderViolationEvents          207                       # Number of memory order violations
system.switch_cpus0.iew.predictedTakenIncorrect      1054896                       # Number of branches that were predicted taken incorrectly
system.switch_cpus0.iew.predictedNotTakenIncorrect      1100993                       # Number of branches that were predicted not taken incorrectly
system.switch_cpus0.iew.branchMispredicts      2155889                       # Number of branch mispredicts detected at execute
system.switch_cpus0.iew.iewExecutedInsts    135972144                       # Number of executed instructions
system.switch_cpus0.iew.iewExecLoadInsts     12339673                       # Number of load instructions executed
system.switch_cpus0.iew.iewExecSquashedInsts      1987106                       # Number of squashed instructions skipped in execute
system.switch_cpus0.iew.exec_swp                    0                       # number of swp insts executed
system.switch_cpus0.iew.exec_nop                    3                       # number of nop insts executed
system.switch_cpus0.iew.exec_refs            19500658                       # number of memory reference insts executed
system.switch_cpus0.iew.exec_branches        19195687                       # Number of branches executed
system.switch_cpus0.iew.exec_stores           7160985                       # Number of stores executed
system.switch_cpus0.iew.exec_rate            0.553420                       # Inst execution rate
system.switch_cpus0.iew.wb_sent             134978112                       # cumulative count of insts sent to commit
system.switch_cpus0.iew.wb_count            134978070                       # cumulative count of insts written-back
system.switch_cpus0.iew.wb_producers         77884828                       # num instructions producing a value
system.switch_cpus0.iew.wb_consumers        216937604                       # num instructions consuming a value
system.switch_cpus0.iew.wb_penalized                0                       # number of instrctions required to write to 'other' IQ
system.switch_cpus0.iew.wb_rate              0.549374                       # insts written-back per cycle
system.switch_cpus0.iew.wb_fanout            0.359019                       # average fanout of values written-back
system.switch_cpus0.iew.wb_penalized_rate            0                       # fraction of instructions written-back that wrote to 'other' IQ
system.switch_cpus0.commit.commitCommittedInsts    100000001                       # The number of committed instructions
system.switch_cpus0.commit.commitCommittedOps    123129333                       # The number of committed instructions
system.switch_cpus0.commit.commitSquashedInsts     22959994                       # The number of squashed insts skipped by commit
system.switch_cpus0.commit.commitNonSpecStalls        33814                       # The number of times commit has been forced to stall to communicate backwards
system.switch_cpus0.commit.branchMispredicts      2002001                       # The number of times a branch was mispredicted
system.switch_cpus0.commit.committed_per_cycle::samples    217930418                       # Number of insts commited each cycle
system.switch_cpus0.commit.committed_per_cycle::mean     0.564994                       # Number of insts commited each cycle
system.switch_cpus0.commit.committed_per_cycle::stdev     1.364671                       # Number of insts commited each cycle
system.switch_cpus0.commit.committed_per_cycle::underflows            0      0.00%      0.00% # Number of insts commited each cycle
system.switch_cpus0.commit.committed_per_cycle::0    166076817     76.21%     76.21% # Number of insts commited each cycle
system.switch_cpus0.commit.committed_per_cycle::1     23869669     10.95%     87.16% # Number of insts commited each cycle
system.switch_cpus0.commit.committed_per_cycle::2     12381227      5.68%     92.84% # Number of insts commited each cycle
system.switch_cpus0.commit.committed_per_cycle::3      3980478      1.83%     94.67% # Number of insts commited each cycle
system.switch_cpus0.commit.committed_per_cycle::4      5465637      2.51%     97.17% # Number of insts commited each cycle
system.switch_cpus0.commit.committed_per_cycle::5      1834996      0.84%     98.02% # Number of insts commited each cycle
system.switch_cpus0.commit.committed_per_cycle::6      1058362      0.49%     98.50% # Number of insts commited each cycle
system.switch_cpus0.commit.committed_per_cycle::7       937780      0.43%     98.93% # Number of insts commited each cycle
system.switch_cpus0.commit.committed_per_cycle::8      2325452      1.07%    100.00% # Number of insts commited each cycle
system.switch_cpus0.commit.committed_per_cycle::overflows            0      0.00%    100.00% # Number of insts commited each cycle
system.switch_cpus0.commit.committed_per_cycle::min_value            0                       # Number of insts commited each cycle
system.switch_cpus0.commit.committed_per_cycle::max_value            8                       # Number of insts commited each cycle
system.switch_cpus0.commit.committed_per_cycle::total    217930418                       # Number of insts commited each cycle
system.switch_cpus0.commit.committedInsts    100000001                       # Number of instructions committed
system.switch_cpus0.commit.committedOps     123129333                       # Number of ops (including micro ops) committed
system.switch_cpus0.commit.swp_count                0                       # Number of s/w prefetches committed
system.switch_cpus0.commit.refs              18284449                       # Number of memory references committed
system.switch_cpus0.commit.loads             11193421                       # Number of loads committed
system.switch_cpus0.commit.membars              16907                       # Number of memory barriers committed
system.switch_cpus0.commit.branches          17772297                       # Number of branches committed
system.switch_cpus0.commit.fp_insts                 0                       # Number of committed floating point instructions.
system.switch_cpus0.commit.int_insts        110930175                       # Number of committed integer instructions.
system.switch_cpus0.commit.function_calls      2539549                       # Number of function calls committed.
system.switch_cpus0.commit.bw_lim_events      2325452                       # number cycles where commit BW limit reached
system.switch_cpus0.commit.bw_limited               0                       # number of insts not committed due to BW limits
system.switch_cpus0.rob.rob_reads           361694293                       # The number of ROB reads
system.switch_cpus0.rob.rob_writes          296203572                       # The number of ROB writes
system.switch_cpus0.timesIdled                2879765                       # Number of times that the entire CPU went into an idle state and unscheduled itself
system.switch_cpus0.idleCycles               23738938                       # Total number of cycles that the CPU has spent unscheduled due to idling
system.switch_cpus0.committedInsts          100000001                       # Number of Instructions Simulated
system.switch_cpus0.committedOps            123129333                       # Number of Ops (including micro ops) Simulated
system.switch_cpus0.committedInsts_total    100000001                       # Number of Instructions Simulated
system.switch_cpus0.cpi                      2.456942                       # CPI: Cycles Per Instruction
system.switch_cpus0.cpi_total                2.456942                       # CPI: Total CPI of All Threads
system.switch_cpus0.ipc                      0.407010                       # IPC: Instructions Per Cycle
system.switch_cpus0.ipc_total                0.407010                       # IPC: Total IPC of All Threads
system.switch_cpus0.int_regfile_reads       611564057                       # number of integer regfile reads
system.switch_cpus0.int_regfile_writes      188893763                       # number of integer regfile writes
system.switch_cpus0.misc_regfile_reads      135802637                       # number of misc regfile reads
system.switch_cpus0.misc_regfile_writes         33814                       # number of misc regfile writes
system.switch_cpus1.dtb.inst_hits                   0                       # ITB inst hits
system.switch_cpus1.dtb.inst_misses                 0                       # ITB inst misses
system.switch_cpus1.dtb.read_hits                   0                       # DTB read hits
system.switch_cpus1.dtb.read_misses                 0                       # DTB read misses
system.switch_cpus1.dtb.write_hits                  0                       # DTB write hits
system.switch_cpus1.dtb.write_misses                0                       # DTB write misses
system.switch_cpus1.dtb.flush_tlb                   0                       # Number of times complete TLB was flushed
system.switch_cpus1.dtb.flush_tlb_mva               0                       # Number of times TLB was flushed by MVA
system.switch_cpus1.dtb.flush_tlb_mva_asid            0                       # Number of times TLB was flushed by MVA & ASID
system.switch_cpus1.dtb.flush_tlb_asid              0                       # Number of times TLB was flushed by ASID
system.switch_cpus1.dtb.flush_entries               0                       # Number of entries that have been flushed from TLB
system.switch_cpus1.dtb.align_faults                0                       # Number of TLB faults due to alignment restrictions
system.switch_cpus1.dtb.prefetch_faults             0                       # Number of TLB faults due to prefetch
system.switch_cpus1.dtb.domain_faults               0                       # Number of TLB faults due to domain restrictions
system.switch_cpus1.dtb.perms_faults                0                       # Number of TLB faults due to permissions restrictions
system.switch_cpus1.dtb.read_accesses               0                       # DTB read accesses
system.switch_cpus1.dtb.write_accesses              0                       # DTB write accesses
system.switch_cpus1.dtb.inst_accesses               0                       # ITB inst accesses
system.switch_cpus1.dtb.hits                        0                       # DTB hits
system.switch_cpus1.dtb.misses                      0                       # DTB misses
system.switch_cpus1.dtb.accesses                    0                       # DTB accesses
system.switch_cpus1.itb.inst_hits                   0                       # ITB inst hits
system.switch_cpus1.itb.inst_misses                 0                       # ITB inst misses
system.switch_cpus1.itb.read_hits                   0                       # DTB read hits
system.switch_cpus1.itb.read_misses                 0                       # DTB read misses
system.switch_cpus1.itb.write_hits                  0                       # DTB write hits
system.switch_cpus1.itb.write_misses                0                       # DTB write misses
system.switch_cpus1.itb.flush_tlb                   0                       # Number of times complete TLB was flushed
system.switch_cpus1.itb.flush_tlb_mva               0                       # Number of times TLB was flushed by MVA
system.switch_cpus1.itb.flush_tlb_mva_asid            0                       # Number of times TLB was flushed by MVA & ASID
system.switch_cpus1.itb.flush_tlb_asid              0                       # Number of times TLB was flushed by ASID
system.switch_cpus1.itb.flush_entries               0                       # Number of entries that have been flushed from TLB
system.switch_cpus1.itb.align_faults                0                       # Number of TLB faults due to alignment restrictions
system.switch_cpus1.itb.prefetch_faults             0                       # Number of TLB faults due to prefetch
system.switch_cpus1.itb.domain_faults               0                       # Number of TLB faults due to domain restrictions
system.switch_cpus1.itb.perms_faults                0                       # Number of TLB faults due to permissions restrictions
system.switch_cpus1.itb.read_accesses               0                       # DTB read accesses
system.switch_cpus1.itb.write_accesses              0                       # DTB write accesses
system.switch_cpus1.itb.inst_accesses               0                       # ITB inst accesses
system.switch_cpus1.itb.hits                        0                       # DTB hits
system.switch_cpus1.itb.misses                      0                       # DTB misses
system.switch_cpus1.itb.accesses                    0                       # DTB accesses
system.cpu1.workload.num_syscalls                   0                       # Number of system calls
system.switch_cpus1.numCycles               245694232                       # number of cpu cycles simulated
system.switch_cpus1.numWorkItemsStarted             0                       # number of work items this cpu started
system.switch_cpus1.numWorkItemsCompleted            0                       # number of work items this cpu completed
system.switch_cpus1.BPredUnit.lookups        19431316                       # Number of BP lookups
system.switch_cpus1.BPredUnit.condPredicted     15887346                       # Number of conditional branches predicted
system.switch_cpus1.BPredUnit.condIncorrect      1893795                       # Number of conditional branches incorrect
system.switch_cpus1.BPredUnit.BTBLookups      7962712                       # Number of BTB lookups
system.switch_cpus1.BPredUnit.BTBHits         7625257                       # Number of BTB hits
system.switch_cpus1.BPredUnit.BTBCorrect            0                       # Number of correct BTB predictions (this stat may not work properly.
system.switch_cpus1.BPredUnit.usedRAS         1991428                       # Number of times the RAS was used to get a target.
system.switch_cpus1.BPredUnit.RASInCorrect        85421                       # Number of incorrect RAS predictions.
system.switch_cpus1.fetch.icacheStallCycles    187094905                       # Number of cycles fetch is stalled on an Icache miss
system.switch_cpus1.fetch.Insts             109165634                       # Number of instructions fetch has processed
system.switch_cpus1.fetch.Branches           19431316                       # Number of branches that fetch encountered
system.switch_cpus1.fetch.predictedBranches      9616685                       # Number of branches that fetch has predicted taken
system.switch_cpus1.fetch.Cycles             22739219                       # Number of cycles fetch has run and was not squashing or blocked
system.switch_cpus1.fetch.SquashCycles        5258034                       # Number of cycles fetch has spent squashing
system.switch_cpus1.fetch.BlockedCycles       6866774                       # Number of cycles fetch has spent blocked
system.switch_cpus1.fetch.CacheLines         11463243                       # Number of cache lines fetched
system.switch_cpus1.fetch.IcacheSquashes      1895041                       # Number of outstanding Icache misses that were squashed
system.switch_cpus1.fetch.rateDist::samples    220033560                       # Number of instructions fetched each cycle (Total)
system.switch_cpus1.fetch.rateDist::mean     0.608341                       # Number of instructions fetched each cycle (Total)
system.switch_cpus1.fetch.rateDist::stdev     1.949523                       # Number of instructions fetched each cycle (Total)
system.switch_cpus1.fetch.rateDist::underflows            0      0.00%      0.00% # Number of instructions fetched each cycle (Total)
system.switch_cpus1.fetch.rateDist::0       197294341     89.67%     89.67% # Number of instructions fetched each cycle (Total)
system.switch_cpus1.fetch.rateDist::1         1092506      0.50%     90.16% # Number of instructions fetched each cycle (Total)
system.switch_cpus1.fetch.rateDist::2         1665252      0.76%     90.92% # Number of instructions fetched each cycle (Total)
system.switch_cpus1.fetch.rateDist::3         2273665      1.03%     91.95% # Number of instructions fetched each cycle (Total)
system.switch_cpus1.fetch.rateDist::4         2333981      1.06%     93.01% # Number of instructions fetched each cycle (Total)
system.switch_cpus1.fetch.rateDist::5         1952318      0.89%     93.90% # Number of instructions fetched each cycle (Total)
system.switch_cpus1.fetch.rateDist::6         1112529      0.51%     94.41% # Number of instructions fetched each cycle (Total)
system.switch_cpus1.fetch.rateDist::7         1632997      0.74%     95.15% # Number of instructions fetched each cycle (Total)
system.switch_cpus1.fetch.rateDist::8        10675971      4.85%    100.00% # Number of instructions fetched each cycle (Total)
system.switch_cpus1.fetch.rateDist::overflows            0      0.00%    100.00% # Number of instructions fetched each cycle (Total)
system.switch_cpus1.fetch.rateDist::min_value            0                       # Number of instructions fetched each cycle (Total)
system.switch_cpus1.fetch.rateDist::max_value            8                       # Number of instructions fetched each cycle (Total)
system.switch_cpus1.fetch.rateDist::total    220033560                       # Number of instructions fetched each cycle (Total)
system.switch_cpus1.fetch.branchRate         0.079087                       # Number of branch fetches per cycle
system.switch_cpus1.fetch.rate               0.444315                       # Number of inst fetches per cycle
system.switch_cpus1.decode.IdleCycles       184936043                       # Number of cycles decode is idle
system.switch_cpus1.decode.BlockedCycles      9043979                       # Number of cycles decode is blocked
system.switch_cpus1.decode.RunCycles         22676638                       # Number of cycles decode is running
system.switch_cpus1.decode.UnblockCycles        44467                       # Number of cycles decode is unblocking
system.switch_cpus1.decode.SquashCycles       3332424                       # Number of cycles decode is squashing
system.switch_cpus1.decode.BranchResolved      3206299                       # Number of times decode resolved a branch
system.switch_cpus1.decode.BranchMispred          239                       # Number of times decode detected a branch misprediction
system.switch_cpus1.decode.DecodedInsts     133740275                       # Number of instructions handled by decode
system.switch_cpus1.decode.SquashedInsts         1334                       # Number of squashed instructions handled by decode
system.switch_cpus1.rename.SquashCycles       3332424                       # Number of cycles rename is squashing
system.switch_cpus1.rename.IdleCycles       185461823                       # Number of cycles rename is idle
system.switch_cpus1.rename.BlockCycles        1701192                       # Number of cycles rename is blocking
system.switch_cpus1.rename.serializeStallCycles      6011631                       # count of cycles rename stalled for serializing inst
system.switch_cpus1.rename.RunCycles         22205029                       # Number of cycles rename is running
system.switch_cpus1.rename.UnblockCycles      1321452                       # Number of cycles rename is unblocking
system.switch_cpus1.rename.RenamedInsts     133658617                       # Number of instructions processed by rename
system.switch_cpus1.rename.ROBFullEvents         2389                       # Number of times rename has blocked due to ROB full
system.switch_cpus1.rename.IQFullEvents        305943                       # Number of times rename has blocked due to IQ full
system.switch_cpus1.rename.LSQFullEvents       522871                       # Number of times rename has blocked due to LSQ full
system.switch_cpus1.rename.FullRegisterEvents         3092                       # Number of times there has been no free registers
system.switch_cpus1.rename.RenamedOperands    185737731                       # Number of destination operands rename has renamed
system.switch_cpus1.rename.RenameLookups    622044714                       # Number of register rename lookups that rename has made
system.switch_cpus1.rename.int_rename_lookups    622044714                       # Number of integer rename lookups
system.switch_cpus1.rename.CommittedMaps    160497987                       # Number of HB maps that are committed
system.switch_cpus1.rename.UndoneMaps        25239635                       # Number of HB maps that are undone due to squashing
system.switch_cpus1.rename.serializingInsts        36774                       # count of serializing insts renamed
system.switch_cpus1.rename.tempSerializingInsts        21105                       # count of temporary serializing insts renamed
system.switch_cpus1.rename.skidInsts          3828630                       # count of insts added to the skid buffer
system.switch_cpus1.memDep0.insertedLoads     12688682                       # Number of loads inserted to the mem dependence unit.
system.switch_cpus1.memDep0.insertedStores      6958476                       # Number of stores inserted to the mem dependence unit.
system.switch_cpus1.memDep0.conflictingLoads       123247                       # Number of conflicting loads.
system.switch_cpus1.memDep0.conflictingStores      1514463                       # Number of conflicting stores.
system.switch_cpus1.iq.iqInstsAdded         133476105                       # Number of instructions added to the IQ (excludes non-spec)
system.switch_cpus1.iq.iqNonSpecInstsAdded        36751                       # Number of non-speculative instructions added to the IQ
system.switch_cpus1.iq.iqInstsIssued        126585327                       # Number of instructions issued
system.switch_cpus1.iq.iqSquashedInstsIssued        25092                       # Number of squashed instructions issued
system.switch_cpus1.iq.iqSquashedInstsExamined     15219211                       # Number of squashed instructions iterated over during squash; mainly for profiling
system.switch_cpus1.iq.iqSquashedOperandsExamined     36138016                       # Number of squashed operands that are examined and possibly removed from graph
system.switch_cpus1.iq.iqSquashedNonSpecRemoved         5415                       # Number of squashed non-spec instructions that were removed
system.switch_cpus1.iq.issued_per_cycle::samples    220033560                       # Number of insts issued each cycle
system.switch_cpus1.iq.issued_per_cycle::mean     0.575300                       # Number of insts issued each cycle
system.switch_cpus1.iq.issued_per_cycle::stdev     1.265342                       # Number of insts issued each cycle
system.switch_cpus1.iq.issued_per_cycle::underflows            0      0.00%      0.00% # Number of insts issued each cycle
system.switch_cpus1.iq.issued_per_cycle::0    166505098     75.67%     75.67% # Number of insts issued each cycle
system.switch_cpus1.iq.issued_per_cycle::1     21825259      9.92%     85.59% # Number of insts issued each cycle
system.switch_cpus1.iq.issued_per_cycle::2     11285626      5.13%     90.72% # Number of insts issued each cycle
system.switch_cpus1.iq.issued_per_cycle::3      8504736      3.87%     94.59% # Number of insts issued each cycle
system.switch_cpus1.iq.issued_per_cycle::4      6608162      3.00%     97.59% # Number of insts issued each cycle
system.switch_cpus1.iq.issued_per_cycle::5      2656051      1.21%     98.80% # Number of insts issued each cycle
system.switch_cpus1.iq.issued_per_cycle::6      1686703      0.77%     99.56% # Number of insts issued each cycle
system.switch_cpus1.iq.issued_per_cycle::7       853913      0.39%     99.95% # Number of insts issued each cycle
system.switch_cpus1.iq.issued_per_cycle::8       108012      0.05%    100.00% # Number of insts issued each cycle
system.switch_cpus1.iq.issued_per_cycle::overflows            0      0.00%    100.00% # Number of insts issued each cycle
system.switch_cpus1.iq.issued_per_cycle::min_value            0                       # Number of insts issued each cycle
system.switch_cpus1.iq.issued_per_cycle::max_value            8                       # Number of insts issued each cycle
system.switch_cpus1.iq.issued_per_cycle::total    220033560                       # Number of insts issued each cycle
system.switch_cpus1.iq.fu_full::No_OpClass            0      0.00%      0.00% # attempts to use FU when none available
system.switch_cpus1.iq.fu_full::IntAlu          22721     10.18%     10.18% # attempts to use FU when none available
system.switch_cpus1.iq.fu_full::IntMult             0      0.00%     10.18% # attempts to use FU when none available
system.switch_cpus1.iq.fu_full::IntDiv              0      0.00%     10.18% # attempts to use FU when none available
system.switch_cpus1.iq.fu_full::FloatAdd            0      0.00%     10.18% # attempts to use FU when none available
system.switch_cpus1.iq.fu_full::FloatCmp            0      0.00%     10.18% # attempts to use FU when none available
system.switch_cpus1.iq.fu_full::FloatCvt            0      0.00%     10.18% # attempts to use FU when none available
system.switch_cpus1.iq.fu_full::FloatMult            0      0.00%     10.18% # attempts to use FU when none available
system.switch_cpus1.iq.fu_full::FloatDiv            0      0.00%     10.18% # attempts to use FU when none available
system.switch_cpus1.iq.fu_full::FloatSqrt            0      0.00%     10.18% # attempts to use FU when none available
system.switch_cpus1.iq.fu_full::SimdAdd             0      0.00%     10.18% # attempts to use FU when none available
system.switch_cpus1.iq.fu_full::SimdAddAcc            0      0.00%     10.18% # attempts to use FU when none available
system.switch_cpus1.iq.fu_full::SimdAlu             0      0.00%     10.18% # attempts to use FU when none available
system.switch_cpus1.iq.fu_full::SimdCmp             0      0.00%     10.18% # attempts to use FU when none available
system.switch_cpus1.iq.fu_full::SimdCvt             0      0.00%     10.18% # attempts to use FU when none available
system.switch_cpus1.iq.fu_full::SimdMisc            0      0.00%     10.18% # attempts to use FU when none available
system.switch_cpus1.iq.fu_full::SimdMult            0      0.00%     10.18% # attempts to use FU when none available
system.switch_cpus1.iq.fu_full::SimdMultAcc            0      0.00%     10.18% # attempts to use FU when none available
system.switch_cpus1.iq.fu_full::SimdShift            0      0.00%     10.18% # attempts to use FU when none available
system.switch_cpus1.iq.fu_full::SimdShiftAcc            0      0.00%     10.18% # attempts to use FU when none available
system.switch_cpus1.iq.fu_full::SimdSqrt            0      0.00%     10.18% # attempts to use FU when none available
system.switch_cpus1.iq.fu_full::SimdFloatAdd            0      0.00%     10.18% # attempts to use FU when none available
system.switch_cpus1.iq.fu_full::SimdFloatAlu            0      0.00%     10.18% # attempts to use FU when none available
system.switch_cpus1.iq.fu_full::SimdFloatCmp            0      0.00%     10.18% # attempts to use FU when none available
system.switch_cpus1.iq.fu_full::SimdFloatCvt            0      0.00%     10.18% # attempts to use FU when none available
system.switch_cpus1.iq.fu_full::SimdFloatDiv            0      0.00%     10.18% # attempts to use FU when none available
system.switch_cpus1.iq.fu_full::SimdFloatMisc            0      0.00%     10.18% # attempts to use FU when none available
system.switch_cpus1.iq.fu_full::SimdFloatMult            0      0.00%     10.18% # attempts to use FU when none available
system.switch_cpus1.iq.fu_full::SimdFloatMultAcc            0      0.00%     10.18% # attempts to use FU when none available
system.switch_cpus1.iq.fu_full::SimdFloatSqrt            0      0.00%     10.18% # attempts to use FU when none available
system.switch_cpus1.iq.fu_full::MemRead         81741     36.62%     46.80% # attempts to use FU when none available
system.switch_cpus1.iq.fu_full::MemWrite       118744     53.20%    100.00% # attempts to use FU when none available
system.switch_cpus1.iq.fu_full::IprAccess            0      0.00%    100.00% # attempts to use FU when none available
system.switch_cpus1.iq.fu_full::InstPrefetch            0      0.00%    100.00% # attempts to use FU when none available
system.switch_cpus1.iq.FU_type_0::No_OpClass            0      0.00%      0.00% # Type of FU issued
system.switch_cpus1.iq.FU_type_0::IntAlu    106051755     83.78%     83.78% # Type of FU issued
system.switch_cpus1.iq.FU_type_0::IntMult      1963170      1.55%     85.33% # Type of FU issued
system.switch_cpus1.iq.FU_type_0::IntDiv            0      0.00%     85.33% # Type of FU issued
system.switch_cpus1.iq.FU_type_0::FloatAdd            0      0.00%     85.33% # Type of FU issued
system.switch_cpus1.iq.FU_type_0::FloatCmp            0      0.00%     85.33% # Type of FU issued
system.switch_cpus1.iq.FU_type_0::FloatCvt            0      0.00%     85.33% # Type of FU issued
system.switch_cpus1.iq.FU_type_0::FloatMult            0      0.00%     85.33% # Type of FU issued
system.switch_cpus1.iq.FU_type_0::FloatDiv            0      0.00%     85.33% # Type of FU issued
system.switch_cpus1.iq.FU_type_0::FloatSqrt            0      0.00%     85.33% # Type of FU issued
system.switch_cpus1.iq.FU_type_0::SimdAdd            0      0.00%     85.33% # Type of FU issued
system.switch_cpus1.iq.FU_type_0::SimdAddAcc            0      0.00%     85.33% # Type of FU issued
system.switch_cpus1.iq.FU_type_0::SimdAlu            0      0.00%     85.33% # Type of FU issued
system.switch_cpus1.iq.FU_type_0::SimdCmp            0      0.00%     85.33% # Type of FU issued
system.switch_cpus1.iq.FU_type_0::SimdCvt            0      0.00%     85.33% # Type of FU issued
system.switch_cpus1.iq.FU_type_0::SimdMisc            0      0.00%     85.33% # Type of FU issued
system.switch_cpus1.iq.FU_type_0::SimdMult            0      0.00%     85.33% # Type of FU issued
system.switch_cpus1.iq.FU_type_0::SimdMultAcc            0      0.00%     85.33% # Type of FU issued
system.switch_cpus1.iq.FU_type_0::SimdShift            0      0.00%     85.33% # Type of FU issued
system.switch_cpus1.iq.FU_type_0::SimdShiftAcc            0      0.00%     85.33% # Type of FU issued
system.switch_cpus1.iq.FU_type_0::SimdSqrt            0      0.00%     85.33% # Type of FU issued
system.switch_cpus1.iq.FU_type_0::SimdFloatAdd            0      0.00%     85.33% # Type of FU issued
system.switch_cpus1.iq.FU_type_0::SimdFloatAlu            0      0.00%     85.33% # Type of FU issued
system.switch_cpus1.iq.FU_type_0::SimdFloatCmp            0      0.00%     85.33% # Type of FU issued
system.switch_cpus1.iq.FU_type_0::SimdFloatCvt            0      0.00%     85.33% # Type of FU issued
system.switch_cpus1.iq.FU_type_0::SimdFloatDiv            0      0.00%     85.33% # Type of FU issued
system.switch_cpus1.iq.FU_type_0::SimdFloatMisc        15668      0.01%     85.34% # Type of FU issued
system.switch_cpus1.iq.FU_type_0::SimdFloatMult            0      0.00%     85.34% # Type of FU issued
system.switch_cpus1.iq.FU_type_0::SimdFloatMultAcc            0      0.00%     85.34% # Type of FU issued
system.switch_cpus1.iq.FU_type_0::SimdFloatSqrt            0      0.00%     85.34% # Type of FU issued
system.switch_cpus1.iq.FU_type_0::MemRead     11649072      9.20%     94.54% # Type of FU issued
system.switch_cpus1.iq.FU_type_0::MemWrite      6905662      5.46%    100.00% # Type of FU issued
system.switch_cpus1.iq.FU_type_0::IprAccess            0      0.00%    100.00% # Type of FU issued
system.switch_cpus1.iq.FU_type_0::InstPrefetch            0      0.00%    100.00% # Type of FU issued
system.switch_cpus1.iq.FU_type_0::total     126585327                       # Type of FU issued
system.switch_cpus1.iq.rate                  0.515215                       # Inst issue rate
system.switch_cpus1.iq.fu_busy_cnt             223206                       # FU busy when requested
system.switch_cpus1.iq.fu_busy_rate          0.001763                       # FU busy rate (busy events/executed inst)
system.switch_cpus1.iq.int_inst_queue_reads    473452512                       # Number of integer instruction queue reads
system.switch_cpus1.iq.int_inst_queue_writes    148732389                       # Number of integer instruction queue writes
system.switch_cpus1.iq.int_inst_queue_wakeup_accesses    124682895                       # Number of integer instruction queue wakeup accesses
system.switch_cpus1.iq.fp_inst_queue_reads            0                       # Number of floating instruction queue reads
system.switch_cpus1.iq.fp_inst_queue_writes            0                       # Number of floating instruction queue writes
system.switch_cpus1.iq.fp_inst_queue_wakeup_accesses            0                       # Number of floating instruction queue wakeup accesses
system.switch_cpus1.iq.int_alu_accesses     126808533                       # Number of integer alu accesses
system.switch_cpus1.iq.fp_alu_accesses              0                       # Number of floating point alu accesses
system.switch_cpus1.iew.lsq.thread0.forwLoads       295186                       # Number of loads that had data forwarded from stores
system.switch_cpus1.iew.lsq.thread0.invAddrLoads            0                       # Number of loads ignored due to an invalid address
system.switch_cpus1.iew.lsq.thread0.squashedLoads      2097513                       # Number of loads squashed
system.switch_cpus1.iew.lsq.thread0.ignoredResponses           37                       # Number of memory responses ignored because the instruction is squashed
system.switch_cpus1.iew.lsq.thread0.memOrderViolation          322                       # Number of memory ordering violations
system.switch_cpus1.iew.lsq.thread0.squashedStores       169869                       # Number of stores squashed
system.switch_cpus1.iew.lsq.thread0.invAddrSwpfs            0                       # Number of software prefetches ignored due to an invalid address
system.switch_cpus1.iew.lsq.thread0.blockedLoads            0                       # Number of blocked loads due to partial load-store forwarding
system.switch_cpus1.iew.lsq.thread0.rescheduledLoads            0                       # Number of loads that were rescheduled
system.switch_cpus1.iew.lsq.thread0.cacheBlocked           66                       # Number of times an access to memory failed due to the cache being blocked
system.switch_cpus1.iew.iewIdleCycles               0                       # Number of cycles IEW is idle
system.switch_cpus1.iew.iewSquashCycles       3332424                       # Number of cycles IEW is squashing
system.switch_cpus1.iew.iewBlockCycles        1423154                       # Number of cycles IEW is blocking
system.switch_cpus1.iew.iewUnblockCycles       125103                       # Number of cycles IEW is unblocking
system.switch_cpus1.iew.iewDispatchedInsts    133512856                       # Number of instructions dispatched to IQ
system.switch_cpus1.iew.iewDispSquashedInsts        61170                       # Number of squashed instructions skipped by dispatch
system.switch_cpus1.iew.iewDispLoadInsts     12688682                       # Number of dispatched load instructions
system.switch_cpus1.iew.iewDispStoreInsts      6958476                       # Number of dispatched store instructions
system.switch_cpus1.iew.iewDispNonSpecInsts        21083                       # Number of dispatched non-speculative instructions
system.switch_cpus1.iew.iewIQFullEvents         89610                       # Number of times the IQ has become full, causing a stall
system.switch_cpus1.iew.iewLSQFullEvents            1                       # Number of times the LSQ has become full, causing a stall
system.switch_cpus1.iew.memOrderViolationEvents          322                       # Number of memory order violations
system.switch_cpus1.iew.predictedTakenIncorrect      1103247                       # Number of branches that were predicted taken incorrectly
system.switch_cpus1.iew.predictedNotTakenIncorrect      1077386                       # Number of branches that were predicted not taken incorrectly
system.switch_cpus1.iew.branchMispredicts      2180633                       # Number of branch mispredicts detected at execute
system.switch_cpus1.iew.iewExecutedInsts    124863087                       # Number of executed instructions
system.switch_cpus1.iew.iewExecLoadInsts     10982011                       # Number of load instructions executed
system.switch_cpus1.iew.iewExecSquashedInsts      1722240                       # Number of squashed instructions skipped in execute
system.switch_cpus1.iew.exec_swp                    0                       # number of swp insts executed
system.switch_cpus1.iew.exec_nop                    0                       # number of nop insts executed
system.switch_cpus1.iew.exec_refs            17886138                       # number of memory reference insts executed
system.switch_cpus1.iew.exec_branches        17648856                       # Number of branches executed
system.switch_cpus1.iew.exec_stores           6904127                       # Number of stores executed
system.switch_cpus1.iew.exec_rate            0.508205                       # Inst execution rate
system.switch_cpus1.iew.wb_sent             124683104                       # cumulative count of insts sent to commit
system.switch_cpus1.iew.wb_count            124682895                       # cumulative count of insts written-back
system.switch_cpus1.iew.wb_producers         71771364                       # num instructions producing a value
system.switch_cpus1.iew.wb_consumers        192243426                       # num instructions consuming a value
system.switch_cpus1.iew.wb_penalized                0                       # number of instrctions required to write to 'other' IQ
system.switch_cpus1.iew.wb_rate              0.507472                       # insts written-back per cycle
system.switch_cpus1.iew.wb_fanout            0.373336                       # average fanout of values written-back
system.switch_cpus1.iew.wb_penalized_rate            0                       # fraction of instructions written-back that wrote to 'other' IQ
system.switch_cpus1.commit.commitCommittedInsts     93995833                       # The number of committed instructions
system.switch_cpus1.commit.commitCommittedOps    115524596                       # The number of committed instructions
system.switch_cpus1.commit.commitSquashedInsts     17989317                       # The number of squashed insts skipped by commit
system.switch_cpus1.commit.commitNonSpecStalls        31336                       # The number of times commit has been forced to stall to communicate backwards
system.switch_cpus1.commit.branchMispredicts      1924794                       # The number of times a branch was mispredicted
system.switch_cpus1.commit.committed_per_cycle::samples    216701136                       # Number of insts commited each cycle
system.switch_cpus1.commit.committed_per_cycle::mean     0.533106                       # Number of insts commited each cycle
system.switch_cpus1.commit.committed_per_cycle::stdev     1.382319                       # Number of insts commited each cycle
system.switch_cpus1.commit.committed_per_cycle::underflows            0      0.00%      0.00% # Number of insts commited each cycle
system.switch_cpus1.commit.committed_per_cycle::0    169471880     78.21%     78.21% # Number of insts commited each cycle
system.switch_cpus1.commit.committed_per_cycle::1     23285651     10.75%     88.95% # Number of insts commited each cycle
system.switch_cpus1.commit.committed_per_cycle::2      8851019      4.08%     93.04% # Number of insts commited each cycle
system.switch_cpus1.commit.committed_per_cycle::3      4272171      1.97%     95.01% # Number of insts commited each cycle
system.switch_cpus1.commit.committed_per_cycle::4      3533635      1.63%     96.64% # Number of insts commited each cycle
system.switch_cpus1.commit.committed_per_cycle::5      2112773      0.97%     97.61% # Number of insts commited each cycle
system.switch_cpus1.commit.committed_per_cycle::6      1789066      0.83%     98.44% # Number of insts commited each cycle
system.switch_cpus1.commit.committed_per_cycle::7       791935      0.37%     98.80% # Number of insts commited each cycle
system.switch_cpus1.commit.committed_per_cycle::8      2593006      1.20%    100.00% # Number of insts commited each cycle
system.switch_cpus1.commit.committed_per_cycle::overflows            0      0.00%    100.00% # Number of insts commited each cycle
system.switch_cpus1.commit.committed_per_cycle::min_value            0                       # Number of insts commited each cycle
system.switch_cpus1.commit.committed_per_cycle::max_value            8                       # Number of insts commited each cycle
system.switch_cpus1.commit.committed_per_cycle::total    216701136                       # Number of insts commited each cycle
system.switch_cpus1.commit.committedInsts     93995833                       # Number of instructions committed
system.switch_cpus1.commit.committedOps     115524596                       # Number of ops (including micro ops) committed
system.switch_cpus1.commit.swp_count                0                       # Number of s/w prefetches committed
system.switch_cpus1.commit.refs              17379757                       # Number of memory references committed
system.switch_cpus1.commit.loads             10591157                       # Number of loads committed
system.switch_cpus1.commit.membars              15668                       # Number of memory barriers committed
system.switch_cpus1.commit.branches          16568733                       # Number of branches committed
system.switch_cpus1.commit.fp_insts                 0                       # Number of committed floating point instructions.
system.switch_cpus1.commit.int_insts        104129897                       # Number of committed integer instructions.
system.switch_cpus1.commit.function_calls      2357167                       # Number of function calls committed.
system.switch_cpus1.commit.bw_lim_events      2593006                       # number cycles where commit BW limit reached
system.switch_cpus1.commit.bw_limited               0                       # number of insts not committed due to BW limits
system.switch_cpus1.rob.rob_reads           347622043                       # The number of ROB reads
system.switch_cpus1.rob.rob_writes          270360544                       # The number of ROB writes
system.switch_cpus1.timesIdled                2921622                       # Number of times that the entire CPU went into an idle state and unscheduled itself
system.switch_cpus1.idleCycles               25660672                       # Total number of cycles that the CPU has spent unscheduled due to idling
system.switch_cpus1.committedInsts           93995833                       # Number of Instructions Simulated
system.switch_cpus1.committedOps            115524596                       # Number of Ops (including micro ops) Simulated
system.switch_cpus1.committedInsts_total     93995833                       # Number of Instructions Simulated
system.switch_cpus1.cpi                      2.613884                       # CPI: Cycles Per Instruction
system.switch_cpus1.cpi_total                2.613884                       # CPI: Total CPI of All Threads
system.switch_cpus1.ipc                      0.382572                       # IPC: Instructions Per Cycle
system.switch_cpus1.ipc_total                0.382572                       # IPC: Total IPC of All Threads
system.switch_cpus1.int_regfile_reads       562763649                       # number of integer regfile reads
[...]
system.cpu1.icache.ReadReq_avg_miss_latency::total 155043.187500                       # average ReadReq miss latency
system.cpu1.icache.demand_avg_miss_latency::switch_cpus1.inst 155043.187500                       # average overall miss latency
system.cpu1.icache.demand_avg_miss_latency::total 155043.187500                       # average overall miss latency
system.cpu1.icache.overall_avg_miss_latency::switch_cpus1.inst 155043.187500                       # average overall miss latency
system.cpu1.icache.overall_avg_miss_latency::total 155043.187500                       # average overall miss latency
system.cpu1.icache.blocked_cycles::no_mshrs            0                       # number of cycles access was blocked
system.cpu1.icache.blocked_cycles::no_targets            0                       # number of cycles access was blocked
system.cpu1.icache.blocked::no_mshrs                0                       # number of cycles access was blocked
system.cpu1.icache.blocked::no_targets              0                       # number of cycles access was blocked
system.cpu1.icache.avg_blocked_cycles::no_mshrs          nan                       # average number of cycles each access was blocked
system.cpu1.icache.avg_blocked_cycles::no_targets          nan                       # average number of cycles each access was blocked
system.cpu1.icache.fast_writes                      0                       # number of fast writes performed
system.cpu1.icache.cache_copies                     0                       # number of cache copies performed
system.cpu1.icache.ReadReq_mshr_hits::switch_cpus1.inst            3                       # number of ReadReq MSHR hits
system.cpu1.icache.ReadReq_mshr_hits::total            3                       # number of ReadReq MSHR hits
system.cpu1.icache.demand_mshr_hits::switch_cpus1.inst            3                       # number of demand (read+write) MSHR hits
system.cpu1.icache.demand_mshr_hits::total            3                       # number of demand (read+write) MSHR hits
system.cpu1.icache.overall_mshr_hits::switch_cpus1.inst            3                       # number of overall MSHR hits
system.cpu1.icache.overall_mshr_hits::total            3                       # number of overall MSHR hits
system.cpu1.icache.ReadReq_mshr_misses::switch_cpus1.inst           13                       # number of ReadReq MSHR misses
system.cpu1.icache.ReadReq_mshr_misses::total           13                       # number of ReadReq MSHR misses
system.cpu1.icache.demand_mshr_misses::switch_cpus1.inst           13                       # number of demand (read+write) MSHR misses
system.cpu1.icache.demand_mshr_misses::total           13                       # number of demand (read+write) MSHR misses
system.cpu1.icache.overall_mshr_misses::switch_cpus1.inst           13                       # number of overall MSHR misses
system.cpu1.icache.overall_mshr_misses::total           13                       # number of overall MSHR misses
system.cpu1.icache.ReadReq_mshr_miss_latency::switch_cpus1.inst      2132244                       # number of ReadReq MSHR miss cycles
system.cpu1.icache.ReadReq_mshr_miss_latency::total      2132244                       # number of ReadReq MSHR miss cycles
system.cpu1.icache.demand_mshr_miss_latency::switch_cpus1.inst      2132244                       # number of demand (read+write) MSHR miss cycles
system.cpu1.icache.demand_mshr_miss_latency::total      2132244                       # number of demand (read+write) MSHR miss cycles
system.cpu1.icache.overall_mshr_miss_latency::switch_cpus1.inst      2132244                       # number of overall MSHR miss cycles
system.cpu1.icache.overall_mshr_miss_latency::total      2132244                       # number of overall MSHR miss cycles
system.cpu1.icache.ReadReq_mshr_miss_rate::switch_cpus1.inst     0.000001                       # mshr miss rate for ReadReq accesses
system.cpu1.icache.ReadReq_mshr_miss_rate::total     0.000001                       # mshr miss rate for ReadReq accesses
system.cpu1.icache.demand_mshr_miss_rate::switch_cpus1.inst     0.000001                       # mshr miss rate for demand accesses
system.cpu1.icache.demand_mshr_miss_rate::total     0.000001                       # mshr miss rate for demand accesses
system.cpu1.icache.overall_mshr_miss_rate::switch_cpus1.inst     0.000001                       # mshr miss rate for overall accesses
system.cpu1.icache.overall_mshr_miss_rate::total     0.000001                       # mshr miss rate for overall accesses
system.cpu1.icache.ReadReq_avg_mshr_miss_latency::switch_cpus1.inst 164018.769231                       # average ReadReq mshr miss latency
system.cpu1.icache.ReadReq_avg_mshr_miss_latency::total 164018.769231                       # average ReadReq mshr miss latency
system.cpu1.icache.demand_avg_mshr_miss_latency::switch_cpus1.inst 164018.769231                       # average overall mshr miss latency
system.cpu1.icache.demand_avg_mshr_miss_latency::total 164018.769231                       # average overall mshr miss latency
system.cpu1.icache.overall_avg_mshr_miss_latency::switch_cpus1.inst 164018.769231                       # average overall mshr miss latency
system.cpu1.icache.overall_avg_mshr_miss_latency::total 164018.769231                       # average overall mshr miss latency
system.cpu1.icache.no_allocate_misses               0                       # Number of misses that were no-allocate
system.cpu1.dcache.replacements                 49554                       # number of replacements
system.cpu1.dcache.tagsinuse                      256                       # Cycle average of tags in use
system.cpu1.dcache.total_refs               170933568                       # Total number of references to valid blocks.
system.cpu1.dcache.sampled_refs                 49810                       # Sample count of references to valid blocks.
system.cpu1.dcache.avg_refs               3431.711865                       # Average number of references to valid blocks.
system.cpu1.dcache.warmup_cycle                     0                       # Cycle when the warmup percentage was hit.
system.cpu1.dcache.occ_blocks::switch_cpus1.data   233.249877                       # Average occupied blocks per requestor
system.cpu1.dcache.occ_blocks::cpu1.data    22.750123                       # Average occupied blocks per requestor
system.cpu1.dcache.occ_percent::switch_cpus1.data     0.911132                       # Average percentage of cache occupancy
system.cpu1.dcache.occ_percent::cpu1.data     0.088868                       # Average percentage of cache occupancy
system.cpu1.dcache.occ_percent::total               1                       # Average percentage of cache occupancy
system.cpu1.dcache.ReadReq_hits::switch_cpus1.data      8059346                       # number of ReadReq hits
system.cpu1.dcache.ReadReq_hits::total        8059346                       # number of ReadReq hits
system.cpu1.dcache.WriteReq_hits::switch_cpus1.data      6753581                       # number of WriteReq hits
system.cpu1.dcache.WriteReq_hits::total       6753581                       # number of WriteReq hits
system.cpu1.dcache.LoadLockedReq_hits::switch_cpus1.data        16468                       # number of LoadLockedReq hits
system.cpu1.dcache.LoadLockedReq_hits::total        16468                       # number of LoadLockedReq hits
system.cpu1.dcache.StoreCondReq_hits::switch_cpus1.data        15668                       # number of StoreCondReq hits
system.cpu1.dcache.StoreCondReq_hits::total        15668                       # number of StoreCondReq hits
system.cpu1.dcache.demand_hits::switch_cpus1.data     14812927                       # number of demand (read+write) hits
system.cpu1.dcache.demand_hits::total        14812927                       # number of demand (read+write) hits
system.cpu1.dcache.overall_hits::switch_cpus1.data     14812927                       # number of overall hits
system.cpu1.dcache.overall_hits::total       14812927                       # number of overall hits
system.cpu1.dcache.ReadReq_misses::switch_cpus1.data       141045                       # number of ReadReq misses
system.cpu1.dcache.ReadReq_misses::total       141045                       # number of ReadReq misses
system.cpu1.dcache.WriteReq_misses::switch_cpus1.data         2730                       # number of WriteReq misses
system.cpu1.dcache.WriteReq_misses::total         2730                       # number of WriteReq misses
system.cpu1.dcache.demand_misses::switch_cpus1.data       143775                       # number of demand (read+write) misses
system.cpu1.dcache.demand_misses::total        143775                       # number of demand (read+write) misses
system.cpu1.dcache.overall_misses::switch_cpus1.data       143775                       # number of overall misses
system.cpu1.dcache.overall_misses::total       143775                       # number of overall misses
system.cpu1.dcache.ReadReq_miss_latency::switch_cpus1.data  26669838272                       # number of ReadReq miss cycles
system.cpu1.dcache.ReadReq_miss_latency::total  26669838272                       # number of ReadReq miss cycles
system.cpu1.dcache.WriteReq_miss_latency::switch_cpus1.data    403450169                       # number of WriteReq miss cycles
system.cpu1.dcache.WriteReq_miss_latency::total    403450169                       # number of WriteReq miss cycles
system.cpu1.dcache.demand_miss_latency::switch_cpus1.data  27073288441                       # number of demand (read+write) miss cycles
system.cpu1.dcache.demand_miss_latency::total  27073288441                       # number of demand (read+write) miss cycles
system.cpu1.dcache.overall_miss_latency::switch_cpus1.data  27073288441                       # number of overall miss cycles
system.cpu1.dcache.overall_miss_latency::total  27073288441                       # number of overall miss cycles
system.cpu1.dcache.ReadReq_accesses::switch_cpus1.data      8200391                       # number of ReadReq accesses(hits+misses)
system.cpu1.dcache.ReadReq_accesses::total      8200391                       # number of ReadReq accesses(hits+misses)
system.cpu1.dcache.WriteReq_accesses::switch_cpus1.data      6756311                       # number of WriteReq accesses(hits+misses)
system.cpu1.dcache.WriteReq_accesses::total      6756311                       # number of WriteReq accesses(hits+misses)
system.cpu1.dcache.LoadLockedReq_accesses::switch_cpus1.data        16468                       # number of LoadLockedReq accesses(hits+misses)
system.cpu1.dcache.LoadLockedReq_accesses::total        16468                       # number of LoadLockedReq accesses(hits+misses)
system.cpu1.dcache.StoreCondReq_accesses::switch_cpus1.data        15668                       # number of StoreCondReq accesses(hits+misses)
system.cpu1.dcache.StoreCondReq_accesses::total        15668                       # number of StoreCondReq accesses(hits+misses)
system.cpu1.dcache.demand_accesses::switch_cpus1.data     14956702                       # number of demand (read+write) accesses
system.cpu1.dcache.demand_accesses::total     14956702                       # number of demand (read+write) accesses
system.cpu1.dcache.overall_accesses::switch_cpus1.data     14956702                       # number of overall (read+write) accesses
system.cpu1.dcache.overall_accesses::total     14956702                       # number of overall (read+write) accesses
system.cpu1.dcache.ReadReq_miss_rate::switch_cpus1.data     0.017200                       # miss rate for ReadReq accesses
system.cpu1.dcache.ReadReq_miss_rate::total     0.017200                       # miss rate for ReadReq accesses
system.cpu1.dcache.WriteReq_miss_rate::switch_cpus1.data     0.000404                       # miss rate for WriteReq accesses
system.cpu1.dcache.WriteReq_miss_rate::total     0.000404                       # miss rate for WriteReq accesses
system.cpu1.dcache.demand_miss_rate::switch_cpus1.data     0.009613                       # miss rate for demand accesses
system.cpu1.dcache.demand_miss_rate::total     0.009613                       # miss rate for demand accesses
system.cpu1.dcache.overall_miss_rate::switch_cpus1.data     0.009613                       # miss rate for overall accesses
system.cpu1.dcache.overall_miss_rate::total     0.009613                       # miss rate for overall accesses
system.cpu1.dcache.ReadReq_avg_miss_latency::switch_cpus1.data 189087.442107                       # average ReadReq miss latency
system.cpu1.dcache.ReadReq_avg_miss_latency::total 189087.442107                       # average ReadReq miss latency
system.cpu1.dcache.WriteReq_avg_miss_latency::switch_cpus1.data 147783.944689                       # average WriteReq miss latency
system.cpu1.dcache.WriteReq_avg_miss_latency::total 147783.944689                       # average WriteReq miss latency
system.cpu1.dcache.demand_avg_miss_latency::switch_cpus1.data 188303.171212                       # average overall miss latency
system.cpu1.dcache.demand_avg_miss_latency::total 188303.171212                       # average overall miss latency
system.cpu1.dcache.overall_avg_miss_latency::switch_cpus1.data 188303.171212                       # average overall miss latency
system.cpu1.dcache.overall_avg_miss_latency::total 188303.171212                       # average overall miss latency
system.cpu1.dcache.blocked_cycles::no_mshrs            0                       # number of cycles access was blocked
system.cpu1.dcache.blocked_cycles::no_targets       693736                       # number of cycles access was blocked
system.cpu1.dcache.blocked::no_mshrs                0                       # number of cycles access was blocked
system.cpu1.dcache.blocked::no_targets              7                       # number of cycles access was blocked
system.cpu1.dcache.avg_blocked_cycles::no_mshrs          nan                       # average number of cycles each access was blocked
system.cpu1.dcache.avg_blocked_cycles::no_targets 99105.142857                       # average number of cycles each access was blocked
system.cpu1.dcache.fast_writes                      0                       # number of fast writes performed
system.cpu1.dcache.cache_copies                     0                       # number of cache copies performed
system.cpu1.dcache.writebacks::writebacks        14599                       # number of writebacks
system.cpu1.dcache.writebacks::total            14599                       # number of writebacks
system.cpu1.dcache.ReadReq_mshr_hits::switch_cpus1.data        91492                       # number of ReadReq MSHR hits
system.cpu1.dcache.ReadReq_mshr_hits::total        91492                       # number of ReadReq MSHR hits
system.cpu1.dcache.WriteReq_mshr_hits::switch_cpus1.data         2728                       # number of WriteReq MSHR hits
system.cpu1.dcache.WriteReq_mshr_hits::total         2728                       # number of WriteReq MSHR hits
system.cpu1.dcache.demand_mshr_hits::switch_cpus1.data        94220                       # number of demand (read+write) MSHR hits
system.cpu1.dcache.demand_mshr_hits::total        94220                       # number of demand (read+write) MSHR hits
system.cpu1.dcache.overall_mshr_hits::switch_cpus1.data        94220                       # number of overall MSHR hits
system.cpu1.dcache.overall_mshr_hits::total        94220                       # number of overall MSHR hits
system.cpu1.dcache.ReadReq_mshr_misses::switch_cpus1.data        49553                       # number of ReadReq MSHR misses
system.cpu1.dcache.ReadReq_mshr_misses::total        49553                       # number of ReadReq MSHR misses
system.cpu1.dcache.WriteReq_mshr_misses::switch_cpus1.data            2                       # number of WriteReq MSHR misses
system.cpu1.dcache.WriteReq_mshr_misses::total            2                       # number of WriteReq MSHR misses
system.cpu1.dcache.demand_mshr_misses::switch_cpus1.data        49555                       # number of demand (read+write) MSHR misses
system.cpu1.dcache.demand_mshr_misses::total        49555                       # number of demand (read+write) MSHR misses
system.cpu1.dcache.overall_mshr_misses::switch_cpus1.data        49555                       # number of overall MSHR misses
system.cpu1.dcache.overall_mshr_misses::total        49555                       # number of overall MSHR misses
system.cpu1.dcache.ReadReq_mshr_miss_latency::switch_cpus1.data   8594035723                       # number of ReadReq MSHR miss cycles
system.cpu1.dcache.ReadReq_mshr_miss_latency::total   8594035723                       # number of ReadReq MSHR miss cycles
system.cpu1.dcache.WriteReq_mshr_miss_latency::switch_cpus1.data       279398                       # number of WriteReq MSHR miss cycles
system.cpu1.dcache.WriteReq_mshr_miss_latency::total       279398                       # number of WriteReq MSHR miss cycles
system.cpu1.dcache.demand_mshr_miss_latency::switch_cpus1.data   8594315121                       # number of demand (read+write) MSHR miss cycles
system.cpu1.dcache.demand_mshr_miss_latency::total   8594315121                       # number of demand (read+write) MSHR miss cycles
system.cpu1.dcache.overall_mshr_miss_latency::switch_cpus1.data   8594315121                       # number of overall MSHR miss cycles
system.cpu1.dcache.overall_mshr_miss_latency::total   8594315121                       # number of overall MSHR miss cycles
system.cpu1.dcache.ReadReq_mshr_miss_rate::switch_cpus1.data     0.006043                       # mshr miss rate for ReadReq accesses
system.cpu1.dcache.ReadReq_mshr_miss_rate::total     0.006043                       # mshr miss rate for ReadReq accesses
system.cpu1.dcache.WriteReq_mshr_miss_rate::switch_cpus1.data     0.000000                       # mshr miss rate for WriteReq accesses
system.cpu1.dcache.WriteReq_mshr_miss_rate::total     0.000000                       # mshr miss rate for WriteReq accesses
system.cpu1.dcache.demand_mshr_miss_rate::switch_cpus1.data     0.003313                       # mshr miss rate for demand accesses
system.cpu1.dcache.demand_mshr_miss_rate::total     0.003313                       # mshr miss rate for demand accesses
system.cpu1.dcache.overall_mshr_miss_rate::switch_cpus1.data     0.003313                       # mshr miss rate for overall accesses
system.cpu1.dcache.overall_mshr_miss_rate::total     0.003313                       # mshr miss rate for overall accesses
system.cpu1.dcache.ReadReq_avg_mshr_miss_latency::switch_cpus1.data 173431.189292                       # average ReadReq mshr miss latency
system.cpu1.dcache.ReadReq_avg_mshr_miss_latency::total 173431.189292                       # average ReadReq mshr miss latency
system.cpu1.dcache.WriteReq_avg_mshr_miss_latency::switch_cpus1.data       139699                       # average WriteReq mshr miss latency
system.cpu1.dcache.WriteReq_avg_mshr_miss_latency::total       139699                       # average WriteReq mshr miss latency
system.cpu1.dcache.demand_avg_mshr_miss_latency::switch_cpus1.data 173429.827888                       # average overall mshr miss latency
system.cpu1.dcache.demand_avg_mshr_miss_latency::total 173429.827888                       # average overall mshr miss latency
system.cpu1.dcache.overall_avg_mshr_miss_latency::switch_cpus1.data 173429.827888                       # average overall mshr miss latency
system.cpu1.dcache.overall_avg_mshr_miss_latency::total 173429.827888                       # average overall mshr miss latency
system.cpu1.dcache.no_allocate_misses               0                       # Number of misses that were no-allocate

---------- End Simulation Statistics   ----------
