
---------- Begin Simulation Statistics ----------
sim_seconds                                  0.035372                       # Number of seconds simulated
sim_ticks                                 35371852362                       # Number of ticks simulated
final_tick                               564936232299                       # Number of ticks from beginning of simulation (restored from checkpoints and never reset)
sim_freq                                 1000000000000                       # Frequency of simulated ticks
host_inst_rate                                 118764                       # Simulator instruction rate (inst/s)
host_op_rate                                   150134                       # Simulator op (including micro ops) rate (op/s)
host_tick_rate                                1906406                       # Simulator tick rate (ticks/s)
host_mem_usage                               16901152                       # Number of bytes of host memory used
host_seconds                                 18554.20                       # Real time elapsed on the host
sim_insts                                  2203569646                       # Number of instructions simulated
sim_ops                                    2785621864                       # Number of ops (including micro ops) simulated
system.physmem.bytes_read::switch_cpus0.inst         1280                       # Number of bytes read from this memory
system.physmem.bytes_read::switch_cpus0.data       769536                       # Number of bytes read from this memory
system.physmem.bytes_read::switch_cpus1.inst         1664                       # Number of bytes read from this memory
system.physmem.bytes_read::switch_cpus1.data       421120                       # Number of bytes read from this memory
system.physmem.bytes_read::total              1193600                       # Number of bytes read from this memory
system.physmem.bytes_inst_read::switch_cpus0.inst         1280                       # Number of instructions bytes read from this memory
system.physmem.bytes_inst_read::switch_cpus1.inst         1664                       # Number of instructions bytes read from this memory
system.physmem.bytes_inst_read::total            2944                       # Number of instructions bytes read from this memory
system.physmem.bytes_written::writebacks       898688                       # Number of bytes written to this memory
system.physmem.bytes_written::total            898688                       # Number of bytes written to this memory
system.physmem.num_reads::switch_cpus0.inst           10                       # Number of read requests responded to by this memory
system.physmem.num_reads::switch_cpus0.data         6012                       # Number of read requests responded to by this memory
system.physmem.num_reads::switch_cpus1.inst           13                       # Number of read requests responded to by this memory
system.physmem.num_reads::switch_cpus1.data         3290                       # Number of read requests responded to by this memory
system.physmem.num_reads::total                  9325                       # Number of read requests responded to by this memory
system.physmem.num_writes::writebacks            7021                       # Number of write requests responded to by this memory
system.physmem.num_writes::functional               0                       # Number of write requests responded to by this memory
system.physmem.num_writes::interrupt                0                       # Number of write requests responded to by this memory
system.physmem.num_writes::switch_cpus0.dtb.walker            0                       # Number of write requests responded to by this memory
system.physmem.num_writes::switch_cpus0.itb.walker            0                       # Number of write requests responded to by this memory
system.physmem.num_writes::switch_cpus0.inst            0                       # Number of write requests responded to by this memory
system.physmem.num_writes::switch_cpus0.data            0                       # Number of write requests responded to by this memory
system.physmem.num_writes::switch_cpus1.dtb.walker            0                       # Number of write requests responded to by this memory
system.physmem.num_writes::switch_cpus1.itb.walker            0                       # Number of write requests responded to by this memory
system.physmem.num_writes::switch_cpus1.inst            0                       # Number of write requests responded to by this memory
system.physmem.num_writes::switch_cpus1.data            0                       # Number of write requests responded to by this memory
system.physmem.num_writes::cpu0.dtb.walker            0                       # Number of write requests responded to by this memory
system.physmem.num_writes::cpu0.itb.walker            0                       # Number of write requests responded to by this memory
system.physmem.num_writes::cpu0.inst                0                       # Number of write requests responded to by this memory
system.physmem.num_writes::cpu0.data                0                       # Number of write requests responded to by this memory
system.physmem.num_writes::cpu1.dtb.walker            0                       # Number of write requests responded to by this memory
system.physmem.num_writes::cpu1.itb.walker            0                       # Number of write requests responded to by this memory
system.physmem.num_writes::cpu1.inst                0                       # Number of write requests responded to by this memory
system.physmem.num_writes::cpu1.data                0                       # Number of write requests responded to by this memory
system.physmem.num_writes::total                 7021                       # Number of write requests responded to by this memory
system.physmem.bw_read::switch_cpus0.inst        36187                       # Total read bandwidth from this memory (bytes/s)
system.physmem.bw_read::switch_cpus0.data     21755604                       # Total read bandwidth from this memory (bytes/s)
system.physmem.bw_read::switch_cpus1.inst        47043                       # Total read bandwidth from this memory (bytes/s)
system.physmem.bw_read::switch_cpus1.data     11905512                       # Total read bandwidth from this memory (bytes/s)
system.physmem.bw_read::total                33744345                       # Total read bandwidth from this memory (bytes/s)
system.physmem.bw_inst_read::switch_cpus0.inst        36187                       # Instruction read bandwidth from this memory (bytes/s)
system.physmem.bw_inst_read::switch_cpus1.inst        47043                       # Instruction read bandwidth from this memory (bytes/s)
system.physmem.bw_inst_read::total              83230                       # Instruction read bandwidth from this memory (bytes/s)
system.physmem.bw_write::writebacks          25406868                       # Write bandwidth from this memory (bytes/s)
system.physmem.bw_write::total               25406868                       # Write bandwidth from this memory (bytes/s)
system.physmem.bw_total::writebacks          25406868                       # Total bandwidth to/from this memory (bytes/s)
system.physmem.bw_total::switch_cpus0.inst        36187                       # Total bandwidth to/from this memory (bytes/s)
system.physmem.bw_total::switch_cpus0.data     21755604                       # Total bandwidth to/from this memory (bytes/s)
system.physmem.bw_total::switch_cpus1.inst        47043                       # Total bandwidth to/from this memory (bytes/s)
system.physmem.bw_total::switch_cpus1.data     11905512                       # Total bandwidth to/from this memory (bytes/s)
system.physmem.bw_total::total               59151214                       # Total bandwidth to/from this memory (bytes/s)
system.switch_cpus0.dtb.inst_hits                   0                       # ITB inst hits
system.switch_cpus0.dtb.inst_misses                 0                       # ITB inst misses
system.switch_cpus0.dtb.read_hits                   0                       # DTB read hits
system.switch_cpus0.dtb.read_misses                 0                       # DTB read misses
system.switch_cpus0.dtb.write_hits                  0                       # DTB write hits
system.switch_cpus0.dtb.write_misses                0                       # DTB write misses
system.switch_cpus0.dtb.flush_tlb                   0                       # Number of times complete TLB was flushed
system.switch_cpus0.dtb.flush_tlb_mva               0                       # Number of times TLB was flushed by MVA
system.switch_cpus0.dtb.flush_tlb_mva_asid            0                       # Number of times TLB was flushed by MVA & ASID
system.switch_cpus0.dtb.flush_tlb_asid              0                       # Number of times TLB was flushed by ASID
system.switch_cpus0.dtb.flush_entries               0                       # Number of entries that have been flushed from TLB
system.switch_cpus0.dtb.align_faults                0                       # Number of TLB faults due to alignment restrictions
system.switch_cpus0.dtb.prefetch_faults             0                       # Number of TLB faults due to prefetch
system.switch_cpus0.dtb.domain_faults               0                       # Number of TLB faults due to domain restrictions
system.switch_cpus0.dtb.perms_faults                0                       # Number of TLB faults due to permissions restrictions
system.switch_cpus0.dtb.read_accesses               0                       # DTB read accesses
system.switch_cpus0.dtb.write_accesses              0                       # DTB write accesses
system.switch_cpus0.dtb.inst_accesses               0                       # ITB inst accesses
system.switch_cpus0.dtb.hits                        0                       # DTB hits
system.switch_cpus0.dtb.misses                      0                       # DTB misses
system.switch_cpus0.dtb.accesses                    0                       # DTB accesses
system.switch_cpus0.itb.inst_hits                   0                       # ITB inst hits
system.switch_cpus0.itb.inst_misses                 0                       # ITB inst misses
system.switch_cpus0.itb.read_hits                   0                       # DTB read hits
system.switch_cpus0.itb.read_misses                 0                       # DTB read misses
system.switch_cpus0.itb.write_hits                  0                       # DTB write hits
system.switch_cpus0.itb.write_misses                0                       # DTB write misses
system.switch_cpus0.itb.flush_tlb                   0                       # Number of times complete TLB was flushed
system.switch_cpus0.itb.flush_tlb_mva               0                       # Number of times TLB was flushed by MVA
system.switch_cpus0.itb.flush_tlb_mva_asid            0                       # Number of times TLB was flushed by MVA & ASID
system.switch_cpus0.itb.flush_tlb_asid              0                       # Number of times TLB was flushed by ASID
system.switch_cpus0.itb.flush_entries               0                       # Number of entries that have been flushed from TLB
system.switch_cpus0.itb.align_faults                0                       # Number of TLB faults due to alignment restrictions
system.switch_cpus0.itb.prefetch_faults             0                       # Number of TLB faults due to prefetch
system.switch_cpus0.itb.domain_faults               0                       # Number of TLB faults due to domain restrictions
system.switch_cpus0.itb.perms_faults                0                       # Number of TLB faults due to permissions restrictions
system.switch_cpus0.itb.read_accesses               0                       # DTB read accesses
system.switch_cpus0.itb.write_accesses              0                       # DTB write accesses
system.switch_cpus0.itb.inst_accesses               0                       # ITB inst accesses
system.switch_cpus0.itb.hits                        0                       # DTB hits
system.switch_cpus0.itb.misses                      0                       # DTB misses
system.switch_cpus0.itb.accesses                    0                       # DTB accesses
system.cpu0.workload.num_syscalls                   0                       # Number of system calls
system.switch_cpus0.numCycles                84824587                       # number of cpu cycles simulated
system.switch_cpus0.numWorkItemsStarted             0                       # number of work items this cpu started
system.switch_cpus0.numWorkItemsCompleted            0                       # number of work items this cpu completed
system.switch_cpus0.BPredUnit.lookups        30992685                       # Number of BP lookups
system.switch_cpus0.BPredUnit.condPredicted     25422901                       # Number of conditional branches predicted
system.switch_cpus0.BPredUnit.condIncorrect      2013094                       # Number of conditional branches incorrect
system.switch_cpus0.BPredUnit.BTBLookups     13062545                       # Number of BTB lookups
system.switch_cpus0.BPredUnit.BTBHits        12090560                       # Number of BTB hits
system.switch_cpus0.BPredUnit.BTBCorrect            0                       # Number of correct BTB predictions (this stat may not work properly.
system.switch_cpus0.BPredUnit.usedRAS         3162546                       # Number of times the RAS was used to get a target.
system.switch_cpus0.BPredUnit.RASInCorrect        87168                       # Number of incorrect RAS predictions.
system.switch_cpus0.fetch.icacheStallCycles     32004351                       # Number of cycles fetch is stalled on an Icache miss
system.switch_cpus0.fetch.Insts             170052340                       # Number of instructions fetch has processed
system.switch_cpus0.fetch.Branches           30992685                       # Number of branches that fetch encountered
system.switch_cpus0.fetch.predictedBranches     15253106                       # Number of branches that fetch has predicted taken
system.switch_cpus0.fetch.Cycles             36567827                       # Number of cycles fetch has run and was not squashing or blocked
system.switch_cpus0.fetch.SquashCycles       10791272                       # Number of cycles fetch has spent squashing
system.switch_cpus0.fetch.BlockedCycles       6363944                       # Number of cycles fetch has spent blocked
system.switch_cpus0.fetch.PendingTrapStallCycles            1                       # Number of stall cycles due to pending traps
system.switch_cpus0.fetch.CacheLines         15661342                       # Number of cache lines fetched
system.switch_cpus0.fetch.IcacheSquashes       808535                       # Number of outstanding Icache misses that were squashed
system.switch_cpus0.fetch.rateDist::samples     83682140                       # Number of instructions fetched each cycle (Total)
system.switch_cpus0.fetch.rateDist::mean     2.498094                       # Number of instructions fetched each cycle (Total)
system.switch_cpus0.fetch.rateDist::stdev     3.336274                       # Number of instructions fetched each cycle (Total)
system.switch_cpus0.fetch.rateDist::underflows            0      0.00%      0.00% # Number of instructions fetched each cycle (Total)
system.switch_cpus0.fetch.rateDist::0        47114313     56.30%     56.30% # Number of instructions fetched each cycle (Total)
system.switch_cpus0.fetch.rateDist::1         3650665      4.36%     60.66% # Number of instructions fetched each cycle (Total)
system.switch_cpus0.fetch.rateDist::2         3196785      3.82%     64.48% # Number of instructions fetched each cycle (Total)
system.switch_cpus0.fetch.rateDist::3         3434743      4.10%     68.59% # Number of instructions fetched each cycle (Total)
system.switch_cpus0.fetch.rateDist::4         3029565      3.62%     72.21% # Number of instructions fetched each cycle (Total)
system.switch_cpus0.fetch.rateDist::5         1572847      1.88%     74.09% # Number of instructions fetched each cycle (Total)
system.switch_cpus0.fetch.rateDist::6         1025683      1.23%     75.31% # Number of instructions fetched each cycle (Total)
system.switch_cpus0.fetch.rateDist::7         2699539      3.23%     78.54% # Number of instructions fetched each cycle (Total)
system.switch_cpus0.fetch.rateDist::8        17958000     21.46%    100.00% # Number of instructions fetched each cycle (Total)
system.switch_cpus0.fetch.rateDist::overflows            0      0.00%    100.00% # Number of instructions fetched each cycle (Total)
system.switch_cpus0.fetch.rateDist::min_value            0                       # Number of instructions fetched each cycle (Total)
system.switch_cpus0.fetch.rateDist::max_value            8                       # Number of instructions fetched each cycle (Total)
system.switch_cpus0.fetch.rateDist::total     83682140                       # Number of instructions fetched each cycle (Total)
system.switch_cpus0.fetch.branchRate         0.365374                       # Number of branch fetches per cycle
system.switch_cpus0.fetch.rate               2.004753                       # Number of inst fetches per cycle
system.switch_cpus0.decode.IdleCycles        33672123                       # Number of cycles decode is idle
system.switch_cpus0.decode.BlockedCycles      5942268                       # Number of cycles decode is blocked
system.switch_cpus0.decode.RunCycles         34782197                       # Number of cycles decode is running
system.switch_cpus0.decode.UnblockCycles       545973                       # Number of cycles decode is unblocking
system.switch_cpus0.decode.SquashCycles       8739570                       # Number of cycles decode is squashing
system.switch_cpus0.decode.BranchResolved      5077106                       # Number of times decode resolved a branch
system.switch_cpus0.decode.BranchMispred         6574                       # Number of times decode detected a branch misprediction
system.switch_cpus0.decode.DecodedInsts     201752843                       # Number of instructions handled by decode
system.switch_cpus0.decode.SquashedInsts        51018                       # Number of squashed instructions handled by decode
system.switch_cpus0.rename.SquashCycles       8739570                       # Number of cycles rename is squashing
system.switch_cpus0.rename.IdleCycles        35331077                       # Number of cycles rename is idle
system.switch_cpus0.rename.BlockCycles        2455227                       # Number of cycles rename is blocking
system.switch_cpus0.rename.serializeStallCycles       791238                       # count of cycles rename stalled for serializing inst
system.switch_cpus0.rename.RunCycles         33634506                       # Number of cycles rename is running
system.switch_cpus0.rename.UnblockCycles      2730514                       # Number of cycles rename is unblocking
system.switch_cpus0.rename.RenamedInsts     194939806                       # Number of instructions processed by rename
system.switch_cpus0.rename.ROBFullEvents         9566                       # Number of times rename has blocked due to ROB full
system.switch_cpus0.rename.IQFullEvents       1711501                       # Number of times rename has blocked due to IQ full
system.switch_cpus0.rename.LSQFullEvents       745963                       # Number of times rename has blocked due to LSQ full
system.switch_cpus0.rename.FullRegisterEvents           99                       # Number of times there has been no free registers
system.switch_cpus0.rename.RenamedOperands    270684568                       # Number of destination operands rename has renamed
system.switch_cpus0.rename.RenameLookups    908977189                       # Number of register rename lookups that rename has made
system.switch_cpus0.rename.int_rename_lookups    908977189                       # Number of integer rename lookups
system.switch_cpus0.rename.CommittedMaps    168259218                       # Number of HB maps that are committed
system.switch_cpus0.rename.UndoneMaps       102425309                       # Number of HB maps that are undone due to squashing
system.switch_cpus0.rename.serializingInsts        34092                       # count of serializing insts renamed
system.switch_cpus0.rename.tempSerializingInsts        18068                       # count of temporary serializing insts renamed
system.switch_cpus0.rename.skidInsts          7235407                       # count of insts added to the skid buffer
system.switch_cpus0.memDep0.insertedLoads     19260011                       # Number of loads inserted to the mem dependence unit.
system.switch_cpus0.memDep0.insertedStores     10026757                       # Number of stores inserted to the mem dependence unit.
system.switch_cpus0.memDep0.conflictingLoads       239280                       # Number of conflicting loads.
system.switch_cpus0.memDep0.conflictingStores      2947140                       # Number of conflicting stores.
system.switch_cpus0.iq.iqInstsAdded         183858016                       # Number of instructions added to the IQ (excludes non-spec)
system.switch_cpus0.iq.iqNonSpecInstsAdded        34075                       # Number of non-speculative instructions added to the IQ
system.switch_cpus0.iq.iqInstsIssued        147737021                       # Number of instructions issued
system.switch_cpus0.iq.iqSquashedInstsIssued       283713                       # Number of squashed instructions issued
system.switch_cpus0.iq.iqSquashedInstsExamined     60997929                       # Number of squashed instructions iterated over during squash; mainly for profiling
system.switch_cpus0.iq.iqSquashedOperandsExamined    186344074                       # Number of squashed operands that are examined and possibly removed from graph
system.switch_cpus0.iq.iqSquashedNonSpecRemoved         2031                       # Number of squashed non-spec instructions that were removed
system.switch_cpus0.iq.issued_per_cycle::samples     83682140                       # Number of insts issued each cycle
system.switch_cpus0.iq.issued_per_cycle::mean     1.765455                       # Number of insts issued each cycle
system.switch_cpus0.iq.issued_per_cycle::stdev     1.911997                       # Number of insts issued each cycle
system.switch_cpus0.iq.issued_per_cycle::underflows            0      0.00%      0.00% # Number of insts issued each cycle
system.switch_cpus0.iq.issued_per_cycle::0     29533582     35.29%     35.29% # Number of insts issued each cycle
system.switch_cpus0.iq.issued_per_cycle::1     17886680     21.37%     56.67% # Number of insts issued each cycle
system.switch_cpus0.iq.issued_per_cycle::2     11838587     14.15%     70.81% # Number of insts issued each cycle
system.switch_cpus0.iq.issued_per_cycle::3      7608994      9.09%     79.91% # Number of insts issued each cycle
system.switch_cpus0.iq.issued_per_cycle::4      7591216      9.07%     88.98% # Number of insts issued each cycle
system.switch_cpus0.iq.issued_per_cycle::5      4427438      5.29%     94.27% # Number of insts issued each cycle
system.switch_cpus0.iq.issued_per_cycle::6      3384654      4.04%     98.31% # Number of insts issued each cycle
system.switch_cpus0.iq.issued_per_cycle::7       751705      0.90%     99.21% # Number of insts issued each cycle
system.switch_cpus0.iq.issued_per_cycle::8       659284      0.79%    100.00% # Number of insts issued each cycle
system.switch_cpus0.iq.issued_per_cycle::overflows            0      0.00%    100.00% # Number of insts issued each cycle
system.switch_cpus0.iq.issued_per_cycle::min_value            0                       # Number of insts issued each cycle
system.switch_cpus0.iq.issued_per_cycle::max_value            8                       # Number of insts issued each cycle
system.switch_cpus0.iq.issued_per_cycle::total     83682140                       # Number of insts issued each cycle
system.switch_cpus0.iq.fu_full::No_OpClass            0      0.00%      0.00% # attempts to use FU when none available
system.switch_cpus0.iq.fu_full::IntAlu        1083819     69.79%     69.79% # attempts to use FU when none available
system.switch_cpus0.iq.fu_full::IntMult            43      0.00%     69.80% # attempts to use FU when none available
system.switch_cpus0.iq.fu_full::IntDiv              0      0.00%     69.80% # attempts to use FU when none available
system.switch_cpus0.iq.fu_full::FloatAdd            0      0.00%     69.80% # attempts to use FU when none available
system.switch_cpus0.iq.fu_full::FloatCmp            0      0.00%     69.80% # attempts to use FU when none available
system.switch_cpus0.iq.fu_full::FloatCvt            0      0.00%     69.80% # attempts to use FU when none available
system.switch_cpus0.iq.fu_full::FloatMult            0      0.00%     69.80% # attempts to use FU when none available
system.switch_cpus0.iq.fu_full::FloatDiv            0      0.00%     69.80% # attempts to use FU when none available
system.switch_cpus0.iq.fu_full::FloatSqrt            0      0.00%     69.80% # attempts to use FU when none available
system.switch_cpus0.iq.fu_full::SimdAdd             0      0.00%     69.80% # attempts to use FU when none available
system.switch_cpus0.iq.fu_full::SimdAddAcc            0      0.00%     69.80% # attempts to use FU when none available
system.switch_cpus0.iq.fu_full::SimdAlu             0      0.00%     69.80% # attempts to use FU when none available
system.switch_cpus0.iq.fu_full::SimdCmp             0      0.00%     69.80% # attempts to use FU when none available
system.switch_cpus0.iq.fu_full::SimdCvt             0      0.00%     69.80% # attempts to use FU when none available
system.switch_cpus0.iq.fu_full::SimdMisc            0      0.00%     69.80% # attempts to use FU when none available
system.switch_cpus0.iq.fu_full::SimdMult            0      0.00%     69.80% # attempts to use FU when none available
system.switch_cpus0.iq.fu_full::SimdMultAcc            0      0.00%     69.80% # attempts to use FU when none available
system.switch_cpus0.iq.fu_full::SimdShift            0      0.00%     69.80% # attempts to use FU when none available
system.switch_cpus0.iq.fu_full::SimdShiftAcc            0      0.00%     69.80% # attempts to use FU when none available
system.switch_cpus0.iq.fu_full::SimdSqrt            0      0.00%     69.80% # attempts to use FU when none available
system.switch_cpus0.iq.fu_full::SimdFloatAdd            0      0.00%     69.80% # attempts to use FU when none available
system.switch_cpus0.iq.fu_full::SimdFloatAlu            0      0.00%     69.80% # attempts to use FU when none available
system.switch_cpus0.iq.fu_full::SimdFloatCmp            0      0.00%     69.80% # attempts to use FU when none available
system.switch_cpus0.iq.fu_full::SimdFloatCvt            0      0.00%     69.80% # attempts to use FU when none available
system.switch_cpus0.iq.fu_full::SimdFloatDiv            0      0.00%     69.80% # attempts to use FU when none available
system.switch_cpus0.iq.fu_full::SimdFloatMisc            0      0.00%     69.80% # attempts to use FU when none available
system.switch_cpus0.iq.fu_full::SimdFloatMult            0      0.00%     69.80% # attempts to use FU when none available
system.switch_cpus0.iq.fu_full::SimdFloatMultAcc            0      0.00%     69.80% # attempts to use FU when none available
system.switch_cpus0.iq.fu_full::SimdFloatSqrt            0      0.00%     69.80% # attempts to use FU when none available
system.switch_cpus0.iq.fu_full::MemRead        205691     13.25%     83.04% # attempts to use FU when none available
system.switch_cpus0.iq.fu_full::MemWrite       263316     16.96%    100.00% # attempts to use FU when none available
system.switch_cpus0.iq.fu_full::IprAccess            0      0.00%    100.00% # attempts to use FU when none available
system.switch_cpus0.iq.fu_full::InstPrefetch            0      0.00%    100.00% # attempts to use FU when none available
system.switch_cpus0.iq.FU_type_0::No_OpClass            0      0.00%      0.00% # Type of FU issued
system.switch_cpus0.iq.FU_type_0::IntAlu    121527388     82.26%     82.26% # Type of FU issued
system.switch_cpus0.iq.FU_type_0::IntMult      2012050      1.36%     83.62% # Type of FU issued
system.switch_cpus0.iq.FU_type_0::IntDiv            0      0.00%     83.62% # Type of FU issued
system.switch_cpus0.iq.FU_type_0::FloatAdd            0      0.00%     83.62% # Type of FU issued
system.switch_cpus0.iq.FU_type_0::FloatCmp            0      0.00%     83.62% # Type of FU issued
system.switch_cpus0.iq.FU_type_0::FloatCvt            0      0.00%     83.62% # Type of FU issued
system.switch_cpus0.iq.FU_type_0::FloatMult            0      0.00%     83.62% # Type of FU issued
system.switch_cpus0.iq.FU_type_0::FloatDiv            0      0.00%     83.62% # Type of FU issued
system.switch_cpus0.iq.FU_type_0::FloatSqrt            0      0.00%     83.62% # Type of FU issued
system.switch_cpus0.iq.FU_type_0::SimdAdd            0      0.00%     83.62% # Type of FU issued
system.switch_cpus0.iq.FU_type_0::SimdAddAcc            0      0.00%     83.62% # Type of FU issued
system.switch_cpus0.iq.FU_type_0::SimdAlu            0      0.00%     83.62% # Type of FU issued
system.switch_cpus0.iq.FU_type_0::SimdCmp            0      0.00%     83.62% # Type of FU issued
system.switch_cpus0.iq.FU_type_0::SimdCvt            0      0.00%     83.62% # Type of FU issued
system.switch_cpus0.iq.FU_type_0::SimdMisc            0      0.00%     83.62% # Type of FU issued
system.switch_cpus0.iq.FU_type_0::SimdMult            0      0.00%     83.62% # Type of FU issued
system.switch_cpus0.iq.FU_type_0::SimdMultAcc            0      0.00%     83.62% # Type of FU issued
system.switch_cpus0.iq.FU_type_0::SimdShift            0      0.00%     83.62% # Type of FU issued
system.switch_cpus0.iq.FU_type_0::SimdShiftAcc            0      0.00%     83.62% # Type of FU issued
system.switch_cpus0.iq.FU_type_0::SimdSqrt            0      0.00%     83.62% # Type of FU issued
system.switch_cpus0.iq.FU_type_0::SimdFloatAdd            0      0.00%     83.62% # Type of FU issued
system.switch_cpus0.iq.FU_type_0::SimdFloatAlu            0      0.00%     83.62% # Type of FU issued
system.switch_cpus0.iq.FU_type_0::SimdFloatCmp            0      0.00%     83.62% # Type of FU issued
system.switch_cpus0.iq.FU_type_0::SimdFloatCvt            0      0.00%     83.62% # Type of FU issued
system.switch_cpus0.iq.FU_type_0::SimdFloatDiv            0      0.00%     83.62% # Type of FU issued
system.switch_cpus0.iq.FU_type_0::SimdFloatMisc        16022      0.01%     83.63% # Type of FU issued
system.switch_cpus0.iq.FU_type_0::SimdFloatMult            0      0.00%     83.63% # Type of FU issued
system.switch_cpus0.iq.FU_type_0::SimdFloatMultAcc            0      0.00%     83.63% # Type of FU issued
system.switch_cpus0.iq.FU_type_0::SimdFloatSqrt            0      0.00%     83.63% # Type of FU issued
system.switch_cpus0.iq.FU_type_0::MemRead     15723802     10.64%     94.28% # Type of FU issued
system.switch_cpus0.iq.FU_type_0::MemWrite      8457759      5.72%    100.00% # Type of FU issued
system.switch_cpus0.iq.FU_type_0::IprAccess            0      0.00%    100.00% # Type of FU issued
system.switch_cpus0.iq.FU_type_0::InstPrefetch            0      0.00%    100.00% # Type of FU issued
system.switch_cpus0.iq.FU_type_0::total     147737021                       # Type of FU issued
system.switch_cpus0.iq.rate                  1.741677                       # Inst issue rate
system.switch_cpus0.iq.fu_busy_cnt            1552869                       # FU busy when requested
system.switch_cpus0.iq.fu_busy_rate          0.010511                       # FU busy rate (busy events/executed inst)
system.switch_cpus0.iq.int_inst_queue_reads    380992760                       # Number of integer instruction queue reads
system.switch_cpus0.iq.int_inst_queue_writes    244891060                       # Number of integer instruction queue writes
system.switch_cpus0.iq.int_inst_queue_wakeup_accesses    143582188                       # Number of integer instruction queue wakeup accesses
system.switch_cpus0.iq.fp_inst_queue_reads            0                       # Number of floating instruction queue reads
system.switch_cpus0.iq.fp_inst_queue_writes            0                       # Number of floating instruction queue writes
system.switch_cpus0.iq.fp_inst_queue_wakeup_accesses            0                       # Number of floating instruction queue wakeup accesses
system.switch_cpus0.iq.int_alu_accesses     149289890                       # Number of integer alu accesses
system.switch_cpus0.iq.fp_alu_accesses              0                       # Number of floating point alu accesses
system.switch_cpus0.iew.lsq.thread0.forwLoads       262038                       # Number of loads that had data forwarded from stores
system.switch_cpus0.iew.lsq.thread0.invAddrLoads            0                       # Number of loads ignored due to an invalid address
system.switch_cpus0.iew.lsq.thread0.squashedLoads      7047882                       # Number of loads squashed
system.switch_cpus0.iew.lsq.thread0.ignoredResponses          477                       # Number of memory responses ignored because the instruction is squashed
system.switch_cpus0.iew.lsq.thread0.memOrderViolation         1059                       # Number of memory ordering violations
system.switch_cpus0.iew.lsq.thread0.squashedStores      2285084                       # Number of stores squashed
system.switch_cpus0.iew.lsq.thread0.invAddrSwpfs            0                       # Number of software prefetches ignored due to an invalid address
system.switch_cpus0.iew.lsq.thread0.blockedLoads            0                       # Number of blocked loads due to partial load-store forwarding
system.switch_cpus0.iew.lsq.thread0.rescheduledLoads          573                       # Number of loads that were rescheduled
system.switch_cpus0.iew.lsq.thread0.cacheBlocked            0                       # Number of times an access to memory failed due to the cache being blocked
system.switch_cpus0.iew.iewIdleCycles               0                       # Number of cycles IEW is idle
system.switch_cpus0.iew.iewSquashCycles       8739570                       # Number of cycles IEW is squashing
system.switch_cpus0.iew.iewBlockCycles        1729828                       # Number of cycles IEW is blocking
system.switch_cpus0.iew.iewUnblockCycles       156971                       # Number of cycles IEW is unblocking
system.switch_cpus0.iew.iewDispatchedInsts    183892091                       # Number of instructions dispatched to IQ
system.switch_cpus0.iew.iewDispSquashedInsts       307872                       # Number of squashed instructions skipped by dispatch
system.switch_cpus0.iew.iewDispLoadInsts     19260011                       # Number of dispatched load instructions
system.switch_cpus0.iew.iewDispStoreInsts     10026757                       # Number of dispatched store instructions
system.switch_cpus0.iew.iewDispNonSpecInsts        18053                       # Number of dispatched non-speculative instructions
system.switch_cpus0.iew.iewIQFullEvents        112926                       # Number of times the IQ has become full, causing a stall
system.switch_cpus0.iew.iewLSQFullEvents         6674                       # Number of times the LSQ has become full, causing a stall
system.switch_cpus0.iew.memOrderViolationEvents         1059                       # Number of memory order violations
system.switch_cpus0.iew.predictedTakenIncorrect      1227436                       # Number of branches that were predicted taken incorrectly
system.switch_cpus0.iew.predictedNotTakenIncorrect      1130807                       # Number of branches that were predicted not taken incorrectly
system.switch_cpus0.iew.branchMispredicts      2358243                       # Number of branch mispredicts detected at execute
system.switch_cpus0.iew.iewExecutedInsts    145148261                       # Number of executed instructions
system.switch_cpus0.iew.iewExecLoadInsts     14784325                       # Number of load instructions executed
system.switch_cpus0.iew.iewExecSquashedInsts      2588756                       # Number of squashed instructions skipped in execute
system.switch_cpus0.iew.exec_swp                    0                       # number of swp insts executed
system.switch_cpus0.iew.exec_nop                    0                       # number of nop insts executed
system.switch_cpus0.iew.exec_refs            22994536                       # number of memory reference insts executed
system.switch_cpus0.iew.exec_branches        20579927                       # Number of branches executed
system.switch_cpus0.iew.exec_stores           8210211                       # Number of stores executed
system.switch_cpus0.iew.exec_rate            1.711158                       # Inst execution rate
system.switch_cpus0.iew.wb_sent             143727827                       # cumulative count of insts sent to commit
system.switch_cpus0.iew.wb_count            143582188                       # cumulative count of insts written-back
system.switch_cpus0.iew.wb_producers         93667201                       # num instructions producing a value
system.switch_cpus0.iew.wb_consumers        261653198                       # num instructions consuming a value
system.switch_cpus0.iew.wb_penalized                0                       # number of instrctions required to write to 'other' IQ
system.switch_cpus0.iew.wb_rate              1.692695                       # insts written-back per cycle
system.switch_cpus0.iew.wb_fanout            0.357982                       # average fanout of values written-back
system.switch_cpus0.iew.wb_penalized_rate            0                       # fraction of instructions written-back that wrote to 'other' IQ
system.switch_cpus0.commit.commitCommittedInsts    100000000                       # The number of committed instructions
system.switch_cpus0.commit.commitCommittedOps    122421920                       # The number of committed instructions
system.switch_cpus0.commit.commitSquashedInsts     61473065                       # The number of squashed insts skipped by commit
system.switch_cpus0.commit.commitNonSpecStalls        32044                       # The number of times commit has been forced to stall to communicate backwards
system.switch_cpus0.commit.branchMispredicts      2038063                       # The number of times a branch was mispredicted
system.switch_cpus0.commit.committed_per_cycle::samples     74942570                       # Number of insts commited each cycle
system.switch_cpus0.commit.committed_per_cycle::mean     1.633543                       # Number of insts commited each cycle
system.switch_cpus0.commit.committed_per_cycle::stdev     2.175050                       # Number of insts commited each cycle
system.switch_cpus0.commit.committed_per_cycle::underflows            0      0.00%      0.00% # Number of insts commited each cycle
system.switch_cpus0.commit.committed_per_cycle::0     29636543     39.55%     39.55% # Number of insts commited each cycle
system.switch_cpus0.commit.committed_per_cycle::1     20455365     27.29%     66.84% # Number of insts commited each cycle
system.switch_cpus0.commit.committed_per_cycle::2      8383636     11.19%     78.03% # Number of insts commited each cycle
system.switch_cpus0.commit.committed_per_cycle::3      4290905      5.73%     83.75% # Number of insts commited each cycle
system.switch_cpus0.commit.committed_per_cycle::4      3674494      4.90%     88.66% # Number of insts commited each cycle
system.switch_cpus0.commit.committed_per_cycle::5      1802275      2.40%     91.06% # Number of insts commited each cycle
system.switch_cpus0.commit.committed_per_cycle::6      1985730      2.65%     93.71% # Number of insts commited each cycle
system.switch_cpus0.commit.committed_per_cycle::7      1006139      1.34%     95.05% # Number of insts commited each cycle
system.switch_cpus0.commit.committed_per_cycle::8      3707483      4.95%    100.00% # Number of insts commited each cycle
system.switch_cpus0.commit.committed_per_cycle::overflows            0      0.00%    100.00% # Number of insts commited each cycle
system.switch_cpus0.commit.committed_per_cycle::min_value            0                       # Number of insts commited each cycle
system.switch_cpus0.commit.committed_per_cycle::max_value            8                       # Number of insts commited each cycle
system.switch_cpus0.commit.committed_per_cycle::total     74942570                       # Number of insts commited each cycle
system.switch_cpus0.commit.committedInsts    100000000                       # Number of instructions committed
system.switch_cpus0.commit.committedOps     122421920                       # Number of ops (including micro ops) committed
system.switch_cpus0.commit.swp_count                0                       # Number of s/w prefetches committed
system.switch_cpus0.commit.refs              19953799                       # Number of memory references committed
system.switch_cpus0.commit.loads             12212129                       # Number of loads committed
system.switch_cpus0.commit.membars              16022                       # Number of memory barriers committed
system.switch_cpus0.commit.branches          17573934                       # Number of branches committed
system.switch_cpus0.commit.fp_insts                 0                       # Number of committed floating point instructions.
system.switch_cpus0.commit.int_insts        110146126                       # Number of committed integer instructions.
system.switch_cpus0.commit.function_calls      2413416                       # Number of function calls committed.
system.switch_cpus0.commit.bw_lim_events      3707483                       # number cycles where commit BW limit reached
system.switch_cpus0.commit.bw_limited               0                       # number of insts not committed due to BW limits
system.switch_cpus0.rob.rob_reads           255130072                       # The number of ROB reads
system.switch_cpus0.rob.rob_writes          376537857                       # The number of ROB writes
system.switch_cpus0.timesIdled                  37769                       # Number of times that the entire CPU went into an idle state and unscheduled itself
system.switch_cpus0.idleCycles                1142447                       # Total number of cycles that the CPU has spent unscheduled due to idling
system.switch_cpus0.committedInsts          100000000                       # Number of Instructions Simulated
system.switch_cpus0.committedOps            122421920                       # Number of Ops (including micro ops) Simulated
system.switch_cpus0.committedInsts_total    100000000                       # Number of Instructions Simulated
system.switch_cpus0.cpi                      0.848246                       # CPI: Cycles Per Instruction
system.switch_cpus0.cpi_total                0.848246                       # CPI: Total CPI of All Threads
system.switch_cpus0.ipc                      1.178903                       # IPC: Instructions Per Cycle
system.switch_cpus0.ipc_total                1.178903                       # IPC: Total IPC of All Threads
system.switch_cpus0.int_regfile_reads       655316192                       # number of integer regfile reads
system.switch_cpus0.int_regfile_writes      196916065                       # number of integer regfile writes
system.switch_cpus0.misc_regfile_reads      189179357                       # number of misc regfile reads
system.switch_cpus0.misc_regfile_writes         32044                       # number of misc regfile writes
system.switch_cpus1.dtb.inst_hits                   0                       # ITB inst hits
system.switch_cpus1.dtb.inst_misses                 0                       # ITB inst misses
system.switch_cpus1.dtb.read_hits                   0                       # DTB read hits
system.switch_cpus1.dtb.read_misses                 0                       # DTB read misses
system.switch_cpus1.dtb.write_hits                  0                       # DTB write hits
system.switch_cpus1.dtb.write_misses                0                       # DTB write misses
system.switch_cpus1.dtb.flush_tlb                   0                       # Number of times complete TLB was flushed
system.switch_cpus1.dtb.flush_tlb_mva               0                       # Number of times TLB was flushed by MVA
system.switch_cpus1.dtb.flush_tlb_mva_asid            0                       # Number of times TLB was flushed by MVA & ASID
system.switch_cpus1.dtb.flush_tlb_asid              0                       # Number of times TLB was flushed by ASID
system.switch_cpus1.dtb.flush_entries               0                       # Number of entries that have been flushed from TLB
system.switch_cpus1.dtb.align_faults                0                       # Number of TLB faults due to alignment restrictions
system.switch_cpus1.dtb.prefetch_faults             0                       # Number of TLB faults due to prefetch
system.switch_cpus1.dtb.domain_faults               0                       # Number of TLB faults due to domain restrictions
system.switch_cpus1.dtb.perms_faults                0                       # Number of TLB faults due to permissions restrictions
system.switch_cpus1.dtb.read_accesses               0                       # DTB read accesses
system.switch_cpus1.dtb.write_accesses              0                       # DTB write accesses
system.switch_cpus1.dtb.inst_accesses               0                       # ITB inst accesses
system.switch_cpus1.dtb.hits                        0                       # DTB hits
system.switch_cpus1.dtb.misses                      0                       # DTB misses
system.switch_cpus1.dtb.accesses                    0                       # DTB accesses
system.switch_cpus1.itb.inst_hits                   0                       # ITB inst hits
system.switch_cpus1.itb.inst_misses                 0                       # ITB inst misses
system.switch_cpus1.itb.read_hits                   0                       # DTB read hits
system.switch_cpus1.itb.read_misses                 0                       # DTB read misses
system.switch_cpus1.itb.write_hits                  0                       # DTB write hits
system.switch_cpus1.itb.write_misses                0                       # DTB write misses
system.switch_cpus1.itb.flush_tlb                   0                       # Number of times complete TLB was flushed
system.switch_cpus1.itb.flush_tlb_mva               0                       # Number of times TLB was flushed by MVA
system.switch_cpus1.itb.flush_tlb_mva_asid            0                       # Number of times TLB was flushed by MVA & ASID
system.switch_cpus1.itb.flush_tlb_asid              0                       # Number of times TLB was flushed by ASID
system.switch_cpus1.itb.flush_entries               0                       # Number of entries that have been flushed from TLB
system.switch_cpus1.itb.align_faults                0                       # Number of TLB faults due to alignment restrictions
system.switch_cpus1.itb.prefetch_faults             0                       # Number of TLB faults due to prefetch
system.switch_cpus1.itb.domain_faults               0                       # Number of TLB faults due to domain restrictions
system.switch_cpus1.itb.perms_faults                0                       # Number of TLB faults due to permissions restrictions
system.switch_cpus1.itb.read_accesses               0                       # DTB read accesses
system.switch_cpus1.itb.write_accesses              0                       # DTB write accesses
system.switch_cpus1.itb.inst_accesses               0                       # ITB inst accesses
system.switch_cpus1.itb.hits                        0                       # DTB hits
system.switch_cpus1.itb.misses                      0                       # DTB misses
system.switch_cpus1.itb.accesses                    0                       # DTB accesses
system.cpu1.workload.num_syscalls                   0                       # Number of system calls
system.switch_cpus1.numCycles                84824587                       # number of cpu cycles simulated
system.switch_cpus1.numWorkItemsStarted             0                       # number of work items this cpu started
system.switch_cpus1.numWorkItemsCompleted            0                       # number of work items this cpu completed
system.switch_cpus1.BPredUnit.lookups        31174428                       # Number of BP lookups
system.switch_cpus1.BPredUnit.condPredicted     25373521                       # Number of conditional branches predicted
system.switch_cpus1.BPredUnit.condIncorrect      2083089                       # Number of conditional branches incorrect
system.switch_cpus1.BPredUnit.BTBLookups     13280964                       # Number of BTB lookups
system.switch_cpus1.BPredUnit.BTBHits        12295415                       # Number of BTB hits
system.switch_cpus1.BPredUnit.BTBCorrect            0                       # Number of correct BTB predictions (this stat may not work properly.
system.switch_cpus1.BPredUnit.usedRAS         3207929                       # Number of times the RAS was used to get a target.
system.switch_cpus1.BPredUnit.RASInCorrect        91893                       # Number of incorrect RAS predictions.
system.switch_cpus1.fetch.icacheStallCycles     34463136                       # Number of cycles fetch is stalled on an Icache miss
system.switch_cpus1.fetch.Insts             170258599                       # Number of instructions fetch has processed
system.switch_cpus1.fetch.Branches           31174428                       # Number of branches that fetch encountered
system.switch_cpus1.fetch.predictedBranches     15503344                       # Number of branches that fetch has predicted taken
system.switch_cpus1.fetch.Cycles             35781874                       # Number of cycles fetch has run and was not squashing or blocked
system.switch_cpus1.fetch.SquashCycles       10688450                       # Number of cycles fetch has spent squashing
system.switch_cpus1.fetch.BlockedCycles       5036089                       # Number of cycles fetch has spent blocked
system.switch_cpus1.fetch.PendingTrapStallCycles           31                       # Number of stall cycles due to pending traps
system.switch_cpus1.fetch.CacheLines         16846919                       # Number of cache lines fetched
system.switch_cpus1.fetch.IcacheSquashes       837769                       # Number of outstanding Icache misses that were squashed
system.switch_cpus1.fetch.rateDist::samples     83850975                       # Number of instructions fetched each cycle (Total)
system.switch_cpus1.fetch.rateDist::mean     2.500883                       # Number of instructions fetched each cycle (Total)
system.switch_cpus1.fetch.rateDist::stdev     3.301985                       # Number of instructions fetched each cycle (Total)
system.switch_cpus1.fetch.rateDist::underflows            0      0.00%      0.00% # Number of instructions fetched each cycle (Total)
system.switch_cpus1.fetch.rateDist::0        48069101     57.33%     57.33% # Number of instructions fetched each cycle (Total)
system.switch_cpus1.fetch.rateDist::1         1932066      2.30%     59.63% # Number of instructions fetched each cycle (Total)
system.switch_cpus1.fetch.rateDist::2         2522723      3.01%     62.64% # Number of instructions fetched each cycle (Total)
system.switch_cpus1.fetch.rateDist::3         3789646      4.52%     67.16% # Number of instructions fetched each cycle (Total)
system.switch_cpus1.fetch.rateDist::4         3684564      4.39%     71.55% # Number of instructions fetched each cycle (Total)
system.switch_cpus1.fetch.rateDist::5         2795109      3.33%     74.89% # Number of instructions fetched each cycle (Total)
system.switch_cpus1.fetch.rateDist::6         1665576      1.99%     76.87% # Number of instructions fetched each cycle (Total)
system.switch_cpus1.fetch.rateDist::7         2489786      2.97%     79.84% # Number of instructions fetched each cycle (Total)
system.switch_cpus1.fetch.rateDist::8        16902404     20.16%    100.00% # Number of instructions fetched each cycle (Total)
system.switch_cpus1.fetch.rateDist::overflows            0      0.00%    100.00% # Number of instructions fetched each cycle (Total)
system.switch_cpus1.fetch.rateDist::min_value            0                       # Number of instructions fetched each cycle (Total)
system.switch_cpus1.fetch.rateDist::max_value            8                       # Number of instructions fetched each cycle (Total)
system.switch_cpus1.fetch.rateDist::total     83850975                       # Number of instructions fetched each cycle (Total)
system.switch_cpus1.fetch.branchRate         0.367516                       # Number of branch fetches per cycle
system.switch_cpus1.fetch.rate               2.007185                       # Number of inst fetches per cycle
system.switch_cpus1.decode.IdleCycles        35601152                       # Number of cycles decode is idle
system.switch_cpus1.decode.BlockedCycles      4918402                       # Number of cycles decode is blocked
system.switch_cpus1.decode.RunCycles         34491866                       # Number of cycles decode is running
system.switch_cpus1.decode.UnblockCycles       269950                       # Number of cycles decode is unblocking
system.switch_cpus1.decode.SquashCycles       8569604                       # Number of cycles decode is squashing
system.switch_cpus1.decode.BranchResolved      5276455                       # Number of times decode resolved a branch
system.switch_cpus1.decode.BranchMispred          264                       # Number of times decode detected a branch misprediction
system.switch_cpus1.decode.DecodedInsts     203698607                       # Number of instructions handled by decode
system.switch_cpus1.decode.SquashedInsts         1356                       # Number of squashed instructions handled by decode
system.switch_cpus1.rename.SquashCycles       8569604                       # Number of cycles rename is squashing
system.switch_cpus1.rename.IdleCycles        37490450                       # Number of cycles rename is idle
system.switch_cpus1.rename.BlockCycles        1000116                       # Number of cycles rename is blocking
system.switch_cpus1.rename.serializeStallCycles      1170286                       # count of cycles rename stalled for serializing inst
system.switch_cpus1.rename.RunCycles         32828773                       # Number of cycles rename is running
system.switch_cpus1.rename.UnblockCycles      2791740                       # Number of cycles rename is unblocking
system.switch_cpus1.rename.RenamedInsts     197761775                       # Number of instructions processed by rename
system.switch_cpus1.rename.ROBFullEvents          720                       # Number of times rename has blocked due to ROB full
system.switch_cpus1.rename.IQFullEvents       1206020                       # Number of times rename has blocked due to IQ full
system.switch_cpus1.rename.LSQFullEvents       876862                       # Number of times rename has blocked due to LSQ full
system.switch_cpus1.rename.FullRegisterEvents            8                       # Number of times there has been no free registers
system.switch_cpus1.rename.RenamedOperands    275561022                       # Number of destination operands rename has renamed
system.switch_cpus1.rename.RenameLookups    921023076                       # Number of register rename lookups that rename has made
system.switch_cpus1.rename.int_rename_lookups    921023076                       # Number of integer rename lookups
system.switch_cpus1.rename.CommittedMaps    171355266                       # Number of HB maps that are committed
system.switch_cpus1.rename.UndoneMaps       104205723                       # Number of HB maps that are undone due to squashing
system.switch_cpus1.rename.serializingInsts        41891                       # count of serializing insts renamed
system.switch_cpus1.rename.tempSerializingInsts        23631                       # count of temporary serializing insts renamed
system.switch_cpus1.rename.skidInsts          7893258                       # count of insts added to the skid buffer
system.switch_cpus1.memDep0.insertedLoads     18334644                       # Number of loads inserted to the mem dependence unit.
system.switch_cpus1.memDep0.insertedStores      9711570                       # Number of stores inserted to the mem dependence unit.
system.switch_cpus1.memDep0.conflictingLoads       187985                       # Number of conflicting loads.
system.switch_cpus1.memDep0.conflictingStores      3153819                       # Number of conflicting stores.
system.switch_cpus1.iq.iqInstsAdded         183809034                       # Number of instructions added to the IQ (excludes non-spec)
system.switch_cpus1.iq.iqNonSpecInstsAdded        39821                       # Number of non-speculative instructions added to the IQ
system.switch_cpus1.iq.iqInstsIssued        148069015                       # Number of instructions issued
system.switch_cpus1.iq.iqSquashedInstsIssued       276770                       # Number of squashed instructions issued
system.switch_cpus1.iq.iqSquashedInstsExamined     59761402                       # Number of squashed instructions iterated over during squash; mainly for profiling
system.switch_cpus1.iq.iqSquashedOperandsExamined    181752138                       # Number of squashed operands that are examined and possibly removed from graph
system.switch_cpus1.iq.iqSquashedNonSpecRemoved         6369                       # Number of squashed non-spec instructions that were removed
system.switch_cpus1.iq.issued_per_cycle::samples     83850975                       # Number of insts issued each cycle
system.switch_cpus1.iq.issued_per_cycle::mean     1.765859                       # Number of insts issued each cycle
system.switch_cpus1.iq.issued_per_cycle::stdev     1.898290                       # Number of insts issued each cycle
system.switch_cpus1.iq.issued_per_cycle::underflows            0      0.00%      0.00% # Number of insts issued each cycle
system.switch_cpus1.iq.issued_per_cycle::0     28865414     34.42%     34.42% # Number of insts issued each cycle
system.switch_cpus1.iq.issued_per_cycle::1     18527892     22.10%     56.52% # Number of insts issued each cycle
system.switch_cpus1.iq.issued_per_cycle::2     11949009     14.25%     70.77% # Number of insts issued each cycle
system.switch_cpus1.iq.issued_per_cycle::3      8155726      9.73%     80.50% # Number of insts issued each cycle
system.switch_cpus1.iq.issued_per_cycle::4      7632904      9.10%     89.60% # Number of insts issued each cycle
system.switch_cpus1.iq.issued_per_cycle::5      4071324      4.86%     94.46% # Number of insts issued each cycle
system.switch_cpus1.iq.issued_per_cycle::6      3001799      3.58%     98.04% # Number of insts issued each cycle
system.switch_cpus1.iq.issued_per_cycle::7       898359      1.07%     99.11% # Number of insts issued each cycle
system.switch_cpus1.iq.issued_per_cycle::8       748548      0.89%    100.00% # Number of insts issued each cycle
system.switch_cpus1.iq.issued_per_cycle::overflows            0      0.00%    100.00% # Number of insts issued each cycle
system.switch_cpus1.iq.issued_per_cycle::min_value            0                       # Number of insts issued each cycle
system.switch_cpus1.iq.issued_per_cycle::max_value            8                       # Number of insts issued each cycle
system.switch_cpus1.iq.issued_per_cycle::total     83850975                       # Number of insts issued each cycle
system.switch_cpus1.iq.fu_full::No_OpClass            0      0.00%      0.00% # attempts to use FU when none available
system.switch_cpus1.iq.fu_full::IntAlu         728495     69.17%     69.17% # attempts to use FU when none available
system.switch_cpus1.iq.fu_full::IntMult            12      0.00%     69.17% # attempts to use FU when none available
system.switch_cpus1.iq.fu_full::IntDiv              0      0.00%     69.17% # attempts to use FU when none available
system.switch_cpus1.iq.fu_full::FloatAdd            0      0.00%     69.17% # attempts to use FU when none available
system.switch_cpus1.iq.fu_full::FloatCmp            0      0.00%     69.17% # attempts to use FU when none available
system.switch_cpus1.iq.fu_full::FloatCvt            0      0.00%     69.17% # attempts to use FU when none available
system.switch_cpus1.iq.fu_full::FloatMult            0      0.00%     69.17% # attempts to use FU when none available
system.switch_cpus1.iq.fu_full::FloatDiv            0      0.00%     69.17% # attempts to use FU when none available
system.switch_cpus1.iq.fu_full::FloatSqrt            0      0.00%     69.17% # attempts to use FU when none available
system.switch_cpus1.iq.fu_full::SimdAdd             0      0.00%     69.17% # attempts to use FU when none available
system.switch_cpus1.iq.fu_full::SimdAddAcc            0      0.00%     69.17% # attempts to use FU when none available
system.switch_cpus1.iq.fu_full::SimdAlu             0      0.00%     69.17% # attempts to use FU when none available
system.switch_cpus1.iq.fu_full::SimdCmp             0      0.00%     69.17% # attempts to use FU when none available
system.switch_cpus1.iq.fu_full::SimdCvt             0      0.00%     69.17% # attempts to use FU when none available
system.switch_cpus1.iq.fu_full::SimdMisc            0      0.00%     69.17% # attempts to use FU when none available
system.switch_cpus1.iq.fu_full::SimdMult            0      0.00%     69.17% # attempts to use FU when none available
system.switch_cpus1.iq.fu_full::SimdMultAcc            0      0.00%     69.17% # attempts to use FU when none available
system.switch_cpus1.iq.fu_full::SimdShift            0      0.00%     69.17% # attempts to use FU when none available
system.switch_cpus1.iq.fu_full::SimdShiftAcc            0      0.00%     69.17% # attempts to use FU when none available
system.switch_cpus1.iq.fu_full::SimdSqrt            0      0.00%     69.17% # attempts to use FU when none available
system.switch_cpus1.iq.fu_full::SimdFloatAdd            0      0.00%     69.17% # attempts to use FU when none available
system.switch_cpus1.iq.fu_full::SimdFloatAlu            0      0.00%     69.17% # attempts to use FU when none available
system.switch_cpus1.iq.fu_full::SimdFloatCmp            0      0.00%     69.17% # attempts to use FU when none available
system.switch_cpus1.iq.fu_full::SimdFloatCvt            0      0.00%     69.17% # attempts to use FU when none available
system.switch_cpus1.iq.fu_full::SimdFloatDiv            0      0.00%     69.17% # attempts to use FU when none available
system.switch_cpus1.iq.fu_full::SimdFloatMisc            0      0.00%     69.17% # attempts to use FU when none available
system.switch_cpus1.iq.fu_full::SimdFloatMult            0      0.00%     69.17% # attempts to use FU when none available
system.switch_cpus1.iq.fu_full::SimdFloatMultAcc            0      0.00%     69.17% # attempts to use FU when none available
system.switch_cpus1.iq.fu_full::SimdFloatSqrt            0      0.00%     69.17% # attempts to use FU when none available
system.switch_cpus1.iq.fu_full::MemRead        149826     14.23%     83.40% # attempts to use FU when none available
system.switch_cpus1.iq.fu_full::MemWrite       174821     16.60%    100.00% # attempts to use FU when none available
system.switch_cpus1.iq.fu_full::IprAccess            0      0.00%    100.00% # attempts to use FU when none available
system.switch_cpus1.iq.fu_full::InstPrefetch            0      0.00%    100.00% # attempts to use FU when none available
system.switch_cpus1.iq.FU_type_0::No_OpClass            0      0.00%      0.00% # Type of FU issued
system.switch_cpus1.iq.FU_type_0::IntAlu    123205497     83.21%     83.21% # Type of FU issued
system.switch_cpus1.iq.FU_type_0::IntMult      2091746      1.41%     84.62% # Type of FU issued
system.switch_cpus1.iq.FU_type_0::IntDiv            0      0.00%     84.62% # Type of FU issued
system.switch_cpus1.iq.FU_type_0::FloatAdd            0      0.00%     84.62% # Type of FU issued
system.switch_cpus1.iq.FU_type_0::FloatCmp            0      0.00%     84.62% # Type of FU issued
system.switch_cpus1.iq.FU_type_0::FloatCvt            0      0.00%     84.62% # Type of FU issued
system.switch_cpus1.iq.FU_type_0::FloatMult            0      0.00%     84.62% # Type of FU issued
system.switch_cpus1.iq.FU_type_0::FloatDiv            0      0.00%     84.62% # Type of FU issued
system.switch_cpus1.iq.FU_type_0::FloatSqrt            0      0.00%     84.62% # Type of FU issued
system.switch_cpus1.iq.FU_type_0::SimdAdd            0      0.00%     84.62% # Type of FU issued
system.switch_cpus1.iq.FU_type_0::SimdAddAcc            0      0.00%     84.62% # Type of FU issued
system.switch_cpus1.iq.FU_type_0::SimdAlu            0      0.00%     84.62% # Type of FU issued
system.switch_cpus1.iq.FU_type_0::SimdCmp            0      0.00%     84.62% # Type of FU issued
system.switch_cpus1.iq.FU_type_0::SimdCvt            0      0.00%     84.62% # Type of FU issued
system.switch_cpus1.iq.FU_type_0::SimdMisc            0      0.00%     84.62% # Type of FU issued
system.switch_cpus1.iq.FU_type_0::SimdMult            0      0.00%     84.62% # Type of FU issued
system.switch_cpus1.iq.FU_type_0::SimdMultAcc            0      0.00%     84.62% # Type of FU issued
system.switch_cpus1.iq.FU_type_0::SimdShift            0      0.00%     84.62% # Type of FU issued
system.switch_cpus1.iq.FU_type_0::SimdShiftAcc            0      0.00%     84.62% # Type of FU issued
system.switch_cpus1.iq.FU_type_0::SimdSqrt            0      0.00%     84.62% # Type of FU issued
system.switch_cpus1.iq.FU_type_0::SimdFloatAdd            0      0.00%     84.62% # Type of FU issued
system.switch_cpus1.iq.FU_type_0::SimdFloatAlu            0      0.00%     84.62% # Type of FU issued
system.switch_cpus1.iq.FU_type_0::SimdFloatCmp            0      0.00%     84.62% # Type of FU issued
system.switch_cpus1.iq.FU_type_0::SimdFloatCvt            0      0.00%     84.62% # Type of FU issued
system.switch_cpus1.iq.FU_type_0::SimdFloatDiv            0      0.00%     84.62% # Type of FU issued
system.switch_cpus1.iq.FU_type_0::SimdFloatMisc        16727      0.01%     84.63% # Type of FU issued
system.switch_cpus1.iq.FU_type_0::SimdFloatMult            0      0.00%     84.63% # Type of FU issued
system.switch_cpus1.iq.FU_type_0::SimdFloatMultAcc            0      0.00%     84.63% # Type of FU issued
system.switch_cpus1.iq.FU_type_0::SimdFloatSqrt            0      0.00%     84.63% # Type of FU issued
system.switch_cpus1.iq.FU_type_0::MemRead     14621373      9.87%     94.51% # Type of FU issued
system.switch_cpus1.iq.FU_type_0::MemWrite      8133672      5.49%    100.00% # Type of FU issued
system.switch_cpus1.iq.FU_type_0::IprAccess            0      0.00%    100.00% # Type of FU issued
system.switch_cpus1.iq.FU_type_0::InstPrefetch            0      0.00%    100.00% # Type of FU issued
system.switch_cpus1.iq.FU_type_0::total     148069015                       # Type of FU issued
system.switch_cpus1.iq.rate                  1.745591                       # Inst issue rate
system.switch_cpus1.iq.fu_busy_cnt            1053154                       # FU busy when requested
system.switch_cpus1.iq.fu_busy_rate          0.007113                       # FU busy rate (busy events/executed inst)
system.switch_cpus1.iq.int_inst_queue_reads    381318927                       # Number of integer instruction queue reads
system.switch_cpus1.iq.int_inst_queue_writes    243611091                       # Number of integer instruction queue writes
system.switch_cpus1.iq.int_inst_queue_wakeup_accesses    143909877                       # Number of integer instruction queue wakeup accesses
system.switch_cpus1.iq.fp_inst_queue_reads            0                       # Number of floating instruction queue reads
system.switch_cpus1.iq.fp_inst_queue_writes            0                       # Number of floating instruction queue writes
system.switch_cpus1.iq.fp_inst_queue_wakeup_accesses            0                       # Number of floating instruction queue wakeup accesses
system.switch_cpus1.iq.int_alu_accesses     149122169                       # Number of integer alu accesses
system.switch_cpus1.iq.fp_alu_accesses              0                       # Number of floating point alu accesses
system.switch_cpus1.iew.lsq.thread0.forwLoads       501477                       # Number of loads that had data forwarded from stores
system.switch_cpus1.iew.lsq.thread0.invAddrLoads            0                       # Number of loads ignored due to an invalid address
system.switch_cpus1.iew.lsq.thread0.squashedLoads      7027157                       # Number of loads squashed
system.switch_cpus1.iew.lsq.thread0.ignoredResponses         2301                       # Number of memory responses ignored because the instruction is squashed
system.switch_cpus1.iew.lsq.thread0.memOrderViolation          882                       # Number of memory ordering violations
system.switch_cpus1.iew.lsq.thread0.squashedStores      2463921                       # Number of stores squashed
system.switch_cpus1.iew.lsq.thread0.invAddrSwpfs            0                       # Number of software prefetches ignored due to an invalid address
system.switch_cpus1.iew.lsq.thread0.blockedLoads            0                       # Number of blocked loads due to partial load-store forwarding
system.switch_cpus1.iew.lsq.thread0.rescheduledLoads            0                       # Number of loads that were rescheduled
system.switch_cpus1.iew.lsq.thread0.cacheBlocked          366                       # Number of times an access to memory failed due to the cache being blocked
system.switch_cpus1.iew.iewIdleCycles               0                       # Number of cycles IEW is idle
system.switch_cpus1.iew.iewSquashCycles       8569604                       # Number of cycles IEW is squashing
system.switch_cpus1.iew.iewBlockCycles         577650                       # Number of cycles IEW is blocking
system.switch_cpus1.iew.iewUnblockCycles        97992                       # Number of cycles IEW is unblocking
system.switch_cpus1.iew.iewDispatchedInsts    183848860                       # Number of instructions dispatched to IQ
system.switch_cpus1.iew.iewDispSquashedInsts      1259091                       # Number of squashed instructions skipped by dispatch
system.switch_cpus1.iew.iewDispLoadInsts     18334644                       # Number of dispatched load instructions
system.switch_cpus1.iew.iewDispStoreInsts      9711570                       # Number of dispatched store instructions
system.switch_cpus1.iew.iewDispNonSpecInsts        23095                       # Number of dispatched non-speculative instructions
system.switch_cpus1.iew.iewIQFullEvents         74267                       # Number of times the IQ has become full, causing a stall
system.switch_cpus1.iew.iewLSQFullEvents            0                       # Number of times the LSQ has become full, causing a stall
system.switch_cpus1.iew.memOrderViolationEvents          882                       # Number of memory order violations
system.switch_cpus1.iew.predictedTakenIncorrect      1277128                       # Number of branches that were predicted taken incorrectly
system.switch_cpus1.iew.predictedNotTakenIncorrect      1171800                       # Number of branches that were predicted not taken incorrectly
system.switch_cpus1.iew.branchMispredicts      2448928                       # Number of branch mispredicts detected at execute
system.switch_cpus1.iew.iewExecutedInsts    145233402                       # Number of executed instructions
system.switch_cpus1.iew.iewExecLoadInsts     13762748                       # Number of load instructions executed
system.switch_cpus1.iew.iewExecSquashedInsts      2835611                       # Number of squashed instructions skipped in execute
system.switch_cpus1.iew.exec_swp                    0                       # number of swp insts executed
system.switch_cpus1.iew.exec_nop                    5                       # number of nop insts executed
system.switch_cpus1.iew.exec_refs            21715653                       # number of memory reference insts executed
system.switch_cpus1.iew.exec_branches        20342006                       # Number of branches executed
system.switch_cpus1.iew.exec_stores           7952905                       # Number of stores executed
system.switch_cpus1.iew.exec_rate            1.712162                       # Inst execution rate
system.switch_cpus1.iew.wb_sent             143948115                       # cumulative count of insts sent to commit
system.switch_cpus1.iew.wb_count            143909877                       # cumulative count of insts written-back
system.switch_cpus1.iew.wb_producers         92469665                       # num instructions producing a value
system.switch_cpus1.iew.wb_consumers        259682444                       # num instructions consuming a value
system.switch_cpus1.iew.wb_penalized                0                       # number of instrctions required to write to 'other' IQ
system.switch_cpus1.iew.wb_rate              1.696559                       # insts written-back per cycle
system.switch_cpus1.iew.wb_fanout            0.356087                       # average fanout of values written-back
system.switch_cpus1.iew.wb_penalized_rate            0                       # fraction of instructions written-back that wrote to 'other' IQ
system.switch_cpus1.commit.commitCommittedInsts    100353840                       # The number of committed instructions
system.switch_cpus1.commit.commitCommittedOps    123339166                       # The number of committed instructions
system.switch_cpus1.commit.commitSquashedInsts     60509943                       # The number of squashed insts skipped by commit
system.switch_cpus1.commit.commitNonSpecStalls        33452                       # The number of times commit has been forced to stall to communicate backwards
system.switch_cpus1.commit.branchMispredicts      2117417                       # The number of times a branch was mispredicted
system.switch_cpus1.commit.committed_per_cycle::samples     75281371                       # Number of insts commited each cycle
system.switch_cpus1.commit.committed_per_cycle::mean     1.638376                       # Number of insts commited each cycle
system.switch_cpus1.commit.committed_per_cycle::stdev     2.155239                       # Number of insts commited each cycle
system.switch_cpus1.commit.committed_per_cycle::underflows            0      0.00%      0.00% # Number of insts commited each cycle
system.switch_cpus1.commit.committed_per_cycle::0     28757919     38.20%     38.20% # Number of insts commited each cycle
system.switch_cpus1.commit.committed_per_cycle::1     21755970     28.90%     67.10% # Number of insts commited each cycle
system.switch_cpus1.commit.committed_per_cycle::2      8015789     10.65%     77.75% # Number of insts commited each cycle
system.switch_cpus1.commit.committed_per_cycle::3      4587433      6.09%     83.84% # Number of insts commited each cycle
system.switch_cpus1.commit.committed_per_cycle::4      3829560      5.09%     88.93% # Number of insts commited each cycle
system.switch_cpus1.commit.committed_per_cycle::5      1885378      2.50%     91.43% # Number of insts commited each cycle
system.switch_cpus1.commit.committed_per_cycle::6      1873836      2.49%     93.92% # Number of insts commited each cycle
system.switch_cpus1.commit.committed_per_cycle::7       802715      1.07%     94.99% # Number of insts commited each cycle
system.switch_cpus1.commit.committed_per_cycle::8      3772771      5.01%    100.00% # Number of insts commited each cycle
system.switch_cpus1.commit.committed_per_cycle::overflows            0      0.00%    100.00% # Number of insts commited each cycle
system.switch_cpus1.commit.committed_per_cycle::min_value            0                       # Number of insts commited each cycle
system.switch_cpus1.commit.committed_per_cycle::max_value            8                       # Number of insts commited each cycle
system.switch_cpus1.commit.committed_per_cycle::total     75281371                       # Number of insts commited each cycle
system.switch_cpus1.commit.committedInsts    100353840                       # Number of instructions committed
system.switch_cpus1.commit.committedOps     123339166                       # Number of ops (including micro ops) committed
system.switch_cpus1.commit.swp_count                0                       # Number of s/w prefetches committed
system.switch_cpus1.commit.refs              18555133                       # Number of memory references committed
system.switch_cpus1.commit.loads             11307484                       # Number of loads committed
system.switch_cpus1.commit.membars              16726                       # Number of memory barriers committed
system.switch_cpus1.commit.branches          17689758                       # Number of branches committed
system.switch_cpus1.commit.fp_insts                 0                       # Number of committed floating point instructions.
system.switch_cpus1.commit.int_insts        111173482                       # Number of committed integer instructions.
system.switch_cpus1.commit.function_calls      2516640                       # Number of function calls committed.
system.switch_cpus1.commit.bw_lim_events      3772771                       # number cycles where commit BW limit reached
system.switch_cpus1.commit.bw_limited               0                       # number of insts not committed due to BW limits
system.switch_cpus1.rob.rob_reads           255357709                       # The number of ROB reads
system.switch_cpus1.rob.rob_writes          376272265                       # The number of ROB writes
system.switch_cpus1.timesIdled                  30487                       # Number of times that the entire CPU went into an idle state and unscheduled itself
system.switch_cpus1.idleCycles                 973612                       # Total number of cycles that the CPU has spent unscheduled due to idling
system.switch_cpus1.committedInsts          100353840                       # Number of Instructions Simulated
system.switch_cpus1.committedOps            123339166                       # Number of Ops (including micro ops) Simulated
system.switch_cpus1.committedInsts_total    100353840                       # Number of Instructions Simulated
system.switch_cpus1.cpi                      0.845255                       # CPI: Cycles Per Instruction
system.switch_cpus1.cpi_total                0.845255                       # CPI: Total CPI of All Threads
[...]
system.cpu1.icache.ReadReq_avg_miss_latency::total       119459                       # average ReadReq miss latency
system.cpu1.icache.demand_avg_miss_latency::switch_cpus1.inst       119459                       # average overall miss latency
system.cpu1.icache.demand_avg_miss_latency::total       119459                       # average overall miss latency
system.cpu1.icache.overall_avg_miss_latency::switch_cpus1.inst       119459                       # average overall miss latency
system.cpu1.icache.overall_avg_miss_latency::total       119459                       # average overall miss latency
system.cpu1.icache.blocked_cycles::no_mshrs            0                       # number of cycles access was blocked
system.cpu1.icache.blocked_cycles::no_targets            0                       # number of cycles access was blocked
system.cpu1.icache.blocked::no_mshrs                0                       # number of cycles access was blocked
system.cpu1.icache.blocked::no_targets              0                       # number of cycles access was blocked
system.cpu1.icache.avg_blocked_cycles::no_mshrs          nan                       # average number of cycles each access was blocked
system.cpu1.icache.avg_blocked_cycles::no_targets          nan                       # average number of cycles each access was blocked
system.cpu1.icache.fast_writes                      0                       # number of fast writes performed
system.cpu1.icache.cache_copies                     0                       # number of cache copies performed
system.cpu1.icache.ReadReq_mshr_hits::switch_cpus1.inst            4                       # number of ReadReq MSHR hits
system.cpu1.icache.ReadReq_mshr_hits::total            4                       # number of ReadReq MSHR hits
system.cpu1.icache.demand_mshr_hits::switch_cpus1.inst            4                       # number of demand (read+write) MSHR hits
system.cpu1.icache.demand_mshr_hits::total            4                       # number of demand (read+write) MSHR hits
system.cpu1.icache.overall_mshr_hits::switch_cpus1.inst            4                       # number of overall MSHR hits
system.cpu1.icache.overall_mshr_hits::total            4                       # number of overall MSHR hits
system.cpu1.icache.ReadReq_mshr_misses::switch_cpus1.inst           13                       # number of ReadReq MSHR misses
system.cpu1.icache.ReadReq_mshr_misses::total           13                       # number of ReadReq MSHR misses
system.cpu1.icache.demand_mshr_misses::switch_cpus1.inst           13                       # number of demand (read+write) MSHR misses
system.cpu1.icache.demand_mshr_misses::total           13                       # number of demand (read+write) MSHR misses
system.cpu1.icache.overall_mshr_misses::switch_cpus1.inst           13                       # number of overall MSHR misses
system.cpu1.icache.overall_mshr_misses::total           13                       # number of overall MSHR misses
system.cpu1.icache.ReadReq_mshr_miss_latency::switch_cpus1.inst      1613280                       # number of ReadReq MSHR miss cycles
system.cpu1.icache.ReadReq_mshr_miss_latency::total      1613280                       # number of ReadReq MSHR miss cycles
system.cpu1.icache.demand_mshr_miss_latency::switch_cpus1.inst      1613280                       # number of demand (read+write) MSHR miss cycles
system.cpu1.icache.demand_mshr_miss_latency::total      1613280                       # number of demand (read+write) MSHR miss cycles
system.cpu1.icache.overall_mshr_miss_latency::switch_cpus1.inst      1613280                       # number of overall MSHR miss cycles
system.cpu1.icache.overall_mshr_miss_latency::total      1613280                       # number of overall MSHR miss cycles
system.cpu1.icache.ReadReq_mshr_miss_rate::switch_cpus1.inst     0.000001                       # mshr miss rate for ReadReq accesses
system.cpu1.icache.ReadReq_mshr_miss_rate::total     0.000001                       # mshr miss rate for ReadReq accesses
system.cpu1.icache.demand_mshr_miss_rate::switch_cpus1.inst     0.000001                       # mshr miss rate for demand accesses
system.cpu1.icache.demand_mshr_miss_rate::total     0.000001                       # mshr miss rate for demand accesses
system.cpu1.icache.overall_mshr_miss_rate::switch_cpus1.inst     0.000001                       # mshr miss rate for overall accesses
system.cpu1.icache.overall_mshr_miss_rate::total     0.000001                       # mshr miss rate for overall accesses
system.cpu1.icache.ReadReq_avg_mshr_miss_latency::switch_cpus1.inst 124098.461538                       # average ReadReq mshr miss latency
system.cpu1.icache.ReadReq_avg_mshr_miss_latency::total 124098.461538                       # average ReadReq mshr miss latency
system.cpu1.icache.demand_avg_mshr_miss_latency::switch_cpus1.inst 124098.461538                       # average overall mshr miss latency
system.cpu1.icache.demand_avg_mshr_miss_latency::total 124098.461538                       # average overall mshr miss latency
system.cpu1.icache.overall_avg_mshr_miss_latency::switch_cpus1.inst 124098.461538                       # average overall mshr miss latency
system.cpu1.icache.overall_avg_mshr_miss_latency::total 124098.461538                       # average overall mshr miss latency
system.cpu1.icache.no_allocate_misses               0                       # Number of misses that were no-allocate
system.cpu1.dcache.replacements                 52351                       # number of replacements
system.cpu1.dcache.tagsinuse                      256                       # Cycle average of tags in use
system.cpu1.dcache.total_refs               174185214                       # Total number of references to valid blocks.
system.cpu1.dcache.sampled_refs                 52607                       # Sample count of references to valid blocks.
system.cpu1.dcache.avg_refs               3311.065334                       # Average number of references to valid blocks.
system.cpu1.dcache.warmup_cycle                     0                       # Cycle when the warmup percentage was hit.
system.cpu1.dcache.occ_blocks::switch_cpus1.data   233.217921                       # Average occupied blocks per requestor
system.cpu1.dcache.occ_blocks::cpu1.data    22.782079                       # Average occupied blocks per requestor
system.cpu1.dcache.occ_percent::switch_cpus1.data     0.911008                       # Average percentage of cache occupancy
system.cpu1.dcache.occ_percent::cpu1.data     0.088992                       # Average percentage of cache occupancy
system.cpu1.dcache.occ_percent::total               1                       # Average percentage of cache occupancy
system.cpu1.dcache.ReadReq_hits::switch_cpus1.data     10472628                       # number of ReadReq hits
system.cpu1.dcache.ReadReq_hits::total       10472628                       # number of ReadReq hits
system.cpu1.dcache.WriteReq_hits::switch_cpus1.data      7209017                       # number of WriteReq hits
system.cpu1.dcache.WriteReq_hits::total       7209017                       # number of WriteReq hits
system.cpu1.dcache.LoadLockedReq_hits::switch_cpus1.data        17682                       # number of LoadLockedReq hits
system.cpu1.dcache.LoadLockedReq_hits::total        17682                       # number of LoadLockedReq hits
system.cpu1.dcache.StoreCondReq_hits::switch_cpus1.data        16726                       # number of StoreCondReq hits
system.cpu1.dcache.StoreCondReq_hits::total        16726                       # number of StoreCondReq hits
system.cpu1.dcache.demand_hits::switch_cpus1.data     17681645                       # number of demand (read+write) hits
system.cpu1.dcache.demand_hits::total        17681645                       # number of demand (read+write) hits
system.cpu1.dcache.overall_hits::switch_cpus1.data     17681645                       # number of overall hits
system.cpu1.dcache.overall_hits::total       17681645                       # number of overall hits
system.cpu1.dcache.ReadReq_misses::switch_cpus1.data       132443                       # number of ReadReq misses
system.cpu1.dcache.ReadReq_misses::total       132443                       # number of ReadReq misses
system.cpu1.dcache.WriteReq_misses::switch_cpus1.data         4168                       # number of WriteReq misses
system.cpu1.dcache.WriteReq_misses::total         4168                       # number of WriteReq misses
system.cpu1.dcache.demand_misses::switch_cpus1.data       136611                       # number of demand (read+write) misses
system.cpu1.dcache.demand_misses::total        136611                       # number of demand (read+write) misses
system.cpu1.dcache.overall_misses::switch_cpus1.data       136611                       # number of overall misses
system.cpu1.dcache.overall_misses::total       136611                       # number of overall misses
system.cpu1.dcache.ReadReq_miss_latency::switch_cpus1.data   3650206988                       # number of ReadReq miss cycles
system.cpu1.dcache.ReadReq_miss_latency::total   3650206988                       # number of ReadReq miss cycles
system.cpu1.dcache.WriteReq_miss_latency::switch_cpus1.data    353643089                       # number of WriteReq miss cycles
system.cpu1.dcache.WriteReq_miss_latency::total    353643089                       # number of WriteReq miss cycles
system.cpu1.dcache.demand_miss_latency::switch_cpus1.data   4003850077                       # number of demand (read+write) miss cycles
system.cpu1.dcache.demand_miss_latency::total   4003850077                       # number of demand (read+write) miss cycles
system.cpu1.dcache.overall_miss_latency::switch_cpus1.data   4003850077                       # number of overall miss cycles
system.cpu1.dcache.overall_miss_latency::total   4003850077                       # number of overall miss cycles
system.cpu1.dcache.ReadReq_accesses::switch_cpus1.data     10605071                       # number of ReadReq accesses(hits+misses)
system.cpu1.dcache.ReadReq_accesses::total     10605071                       # number of ReadReq accesses(hits+misses)
system.cpu1.dcache.WriteReq_accesses::switch_cpus1.data      7213185                       # number of WriteReq accesses(hits+misses)
system.cpu1.dcache.WriteReq_accesses::total      7213185                       # number of WriteReq accesses(hits+misses)
system.cpu1.dcache.LoadLockedReq_accesses::switch_cpus1.data        17682                       # number of LoadLockedReq accesses(hits+misses)
system.cpu1.dcache.LoadLockedReq_accesses::total        17682                       # number of LoadLockedReq accesses(hits+misses)
system.cpu1.dcache.StoreCondReq_accesses::switch_cpus1.data        16726                       # number of StoreCondReq accesses(hits+misses)
system.cpu1.dcache.StoreCondReq_accesses::total        16726                       # number of StoreCondReq accesses(hits+misses)
system.cpu1.dcache.demand_accesses::switch_cpus1.data     17818256                       # number of demand (read+write) accesses
system.cpu1.dcache.demand_accesses::total     17818256                       # number of demand (read+write) accesses
system.cpu1.dcache.overall_accesses::switch_cpus1.data     17818256                       # number of overall (read+write) accesses
system.cpu1.dcache.overall_accesses::total     17818256                       # number of overall (read+write) accesses
system.cpu1.dcache.ReadReq_miss_rate::switch_cpus1.data     0.012489                       # miss rate for ReadReq accesses
system.cpu1.dcache.ReadReq_miss_rate::total     0.012489                       # miss rate for ReadReq accesses
system.cpu1.dcache.WriteReq_miss_rate::switch_cpus1.data     0.000578                       # miss rate for WriteReq accesses
system.cpu1.dcache.WriteReq_miss_rate::total     0.000578                       # miss rate for WriteReq accesses
system.cpu1.dcache.demand_miss_rate::switch_cpus1.data     0.007667                       # miss rate for demand accesses
system.cpu1.dcache.demand_miss_rate::total     0.007667                       # miss rate for demand accesses
system.cpu1.dcache.overall_miss_rate::switch_cpus1.data     0.007667                       # miss rate for overall accesses
system.cpu1.dcache.overall_miss_rate::total     0.007667                       # miss rate for overall accesses
system.cpu1.dcache.ReadReq_avg_miss_latency::switch_cpus1.data 27560.588238                       # average ReadReq miss latency
system.cpu1.dcache.ReadReq_avg_miss_latency::total 27560.588238                       # average ReadReq miss latency
system.cpu1.dcache.WriteReq_avg_miss_latency::switch_cpus1.data 84847.190259                       # average WriteReq miss latency
system.cpu1.dcache.WriteReq_avg_miss_latency::total 84847.190259                       # average WriteReq miss latency
system.cpu1.dcache.demand_avg_miss_latency::switch_cpus1.data 29308.401790                       # average overall miss latency
system.cpu1.dcache.demand_avg_miss_latency::total 29308.401790                       # average overall miss latency
system.cpu1.dcache.overall_avg_miss_latency::switch_cpus1.data 29308.401790                       # average overall miss latency
system.cpu1.dcache.overall_avg_miss_latency::total 29308.401790                       # average overall miss latency
system.cpu1.dcache.blocked_cycles::no_mshrs            0                       # number of cycles access was blocked
system.cpu1.dcache.blocked_cycles::no_targets      1547930                       # number of cycles access was blocked
system.cpu1.dcache.blocked::no_mshrs                0                       # number of cycles access was blocked
system.cpu1.dcache.blocked::no_targets             26                       # number of cycles access was blocked
system.cpu1.dcache.avg_blocked_cycles::no_mshrs          nan                       # average number of cycles each access was blocked
system.cpu1.dcache.avg_blocked_cycles::no_targets 59535.769231                       # average number of cycles each access was blocked
system.cpu1.dcache.fast_writes                      0                       # number of fast writes performed
system.cpu1.dcache.cache_copies                     0                       # number of cache copies performed
system.cpu1.dcache.writebacks::writebacks        27973                       # number of writebacks
system.cpu1.dcache.writebacks::total            27973                       # number of writebacks
system.cpu1.dcache.ReadReq_mshr_hits::switch_cpus1.data        80095                       # number of ReadReq MSHR hits
system.cpu1.dcache.ReadReq_mshr_hits::total        80095                       # number of ReadReq MSHR hits
system.cpu1.dcache.WriteReq_mshr_hits::switch_cpus1.data         4165                       # number of WriteReq MSHR hits
system.cpu1.dcache.WriteReq_mshr_hits::total         4165                       # number of WriteReq MSHR hits
system.cpu1.dcache.demand_mshr_hits::switch_cpus1.data        84260                       # number of demand (read+write) MSHR hits
system.cpu1.dcache.demand_mshr_hits::total        84260                       # number of demand (read+write) MSHR hits
system.cpu1.dcache.overall_mshr_hits::switch_cpus1.data        84260                       # number of overall MSHR hits
system.cpu1.dcache.overall_mshr_hits::total        84260                       # number of overall MSHR hits
system.cpu1.dcache.ReadReq_mshr_misses::switch_cpus1.data        52348                       # number of ReadReq MSHR misses
system.cpu1.dcache.ReadReq_mshr_misses::total        52348                       # number of ReadReq MSHR misses
system.cpu1.dcache.WriteReq_mshr_misses::switch_cpus1.data            3                       # number of WriteReq MSHR misses
system.cpu1.dcache.WriteReq_mshr_misses::total            3                       # number of WriteReq MSHR misses
system.cpu1.dcache.demand_mshr_misses::switch_cpus1.data        52351                       # number of demand (read+write) MSHR misses
system.cpu1.dcache.demand_mshr_misses::total        52351                       # number of demand (read+write) MSHR misses
system.cpu1.dcache.overall_mshr_misses::switch_cpus1.data        52351                       # number of overall MSHR misses
system.cpu1.dcache.overall_mshr_misses::total        52351                       # number of overall MSHR misses
system.cpu1.dcache.ReadReq_mshr_miss_latency::switch_cpus1.data    707151054                       # number of ReadReq MSHR miss cycles
system.cpu1.dcache.ReadReq_mshr_miss_latency::total    707151054                       # number of ReadReq MSHR miss cycles
system.cpu1.dcache.WriteReq_mshr_miss_latency::switch_cpus1.data       347100                       # number of WriteReq MSHR miss cycles
system.cpu1.dcache.WriteReq_mshr_miss_latency::total       347100                       # number of WriteReq MSHR miss cycles
system.cpu1.dcache.demand_mshr_miss_latency::switch_cpus1.data    707498154                       # number of demand (read+write) MSHR miss cycles
system.cpu1.dcache.demand_mshr_miss_latency::total    707498154                       # number of demand (read+write) MSHR miss cycles
system.cpu1.dcache.overall_mshr_miss_latency::switch_cpus1.data    707498154                       # number of overall MSHR miss cycles
system.cpu1.dcache.overall_mshr_miss_latency::total    707498154                       # number of overall MSHR miss cycles
system.cpu1.dcache.ReadReq_mshr_miss_rate::switch_cpus1.data     0.004936                       # mshr miss rate for ReadReq accesses
system.cpu1.dcache.ReadReq_mshr_miss_rate::total     0.004936                       # mshr miss rate for ReadReq accesses
system.cpu1.dcache.WriteReq_mshr_miss_rate::switch_cpus1.data     0.000000                       # mshr miss rate for WriteReq accesses
system.cpu1.dcache.WriteReq_mshr_miss_rate::total     0.000000                       # mshr miss rate for WriteReq accesses
system.cpu1.dcache.demand_mshr_miss_rate::switch_cpus1.data     0.002938                       # mshr miss rate for demand accesses
system.cpu1.dcache.demand_mshr_miss_rate::total     0.002938                       # mshr miss rate for demand accesses
system.cpu1.dcache.overall_mshr_miss_rate::switch_cpus1.data     0.002938                       # mshr miss rate for overall accesses
system.cpu1.dcache.overall_mshr_miss_rate::total     0.002938                       # mshr miss rate for overall accesses
system.cpu1.dcache.ReadReq_avg_mshr_miss_latency::switch_cpus1.data 13508.654657                       # average ReadReq mshr miss latency
system.cpu1.dcache.ReadReq_avg_mshr_miss_latency::total 13508.654657                       # average ReadReq mshr miss latency
system.cpu1.dcache.WriteReq_avg_mshr_miss_latency::switch_cpus1.data       115700                       # average WriteReq mshr miss latency
system.cpu1.dcache.WriteReq_avg_mshr_miss_latency::total       115700                       # average WriteReq mshr miss latency
system.cpu1.dcache.demand_avg_mshr_miss_latency::switch_cpus1.data 13514.510783                       # average overall mshr miss latency
system.cpu1.dcache.demand_avg_mshr_miss_latency::total 13514.510783                       # average overall mshr miss latency
system.cpu1.dcache.overall_avg_mshr_miss_latency::switch_cpus1.data 13514.510783                       # average overall mshr miss latency
system.cpu1.dcache.overall_avg_mshr_miss_latency::total 13514.510783                       # average overall mshr miss latency
system.cpu1.dcache.no_allocate_misses               0                       # Number of misses that were no-allocate

---------- End Simulation Statistics   ----------
