
---------- Begin Simulation Statistics ----------
sim_seconds                                  0.106043                       # Number of seconds simulated
sim_ticks                                106042577082                       # Number of ticks simulated
final_tick                               633144639990                       # Number of ticks from beginning of simulation (restored from checkpoints and never reset)
sim_freq                                 1000000000000                       # Frequency of simulated ticks
host_inst_rate                                 316101                       # Simulator instruction rate (inst/s)
host_op_rate                                   399496                       # Simulator op (including micro ops) rate (op/s)
host_tick_rate                                1908053                       # Simulator tick rate (ticks/s)
host_mem_usage                               67609200                       # Number of bytes of host memory used
host_seconds                                 55576.33                       # Real time elapsed on the host
sim_insts                                 17567718068                       # Number of instructions simulated
sim_ops                                   22202525848                       # Number of ops (including micro ops) simulated
system.physmem.bytes_read::switch_cpus00.inst         4608                       # Number of bytes read from this memory
system.physmem.bytes_read::switch_cpus00.data      2468352                       # Number of bytes read from this memory
system.physmem.bytes_read::switch_cpus01.inst         4736                       # Number of bytes read from this memory
system.physmem.bytes_read::switch_cpus01.data      2397312                       # Number of bytes read from this memory
system.physmem.bytes_read::switch_cpus02.inst         4736                       # Number of bytes read from this memory
system.physmem.bytes_read::switch_cpus02.data      1382656                       # Number of bytes read from this memory
system.physmem.bytes_read::switch_cpus03.inst         5248                       # Number of bytes read from this memory
system.physmem.bytes_read::switch_cpus03.data      1773952                       # Number of bytes read from this memory
system.physmem.bytes_read::switch_cpus04.inst         4992                       # Number of bytes read from this memory
system.physmem.bytes_read::switch_cpus04.data      4059264                       # Number of bytes read from this memory
system.physmem.bytes_read::switch_cpus05.inst         4480                       # Number of bytes read from this memory
system.physmem.bytes_read::switch_cpus05.data      1366784                       # Number of bytes read from this memory
system.physmem.bytes_read::switch_cpus06.inst         4352                       # Number of bytes read from this memory
system.physmem.bytes_read::switch_cpus06.data      2426880                       # Number of bytes read from this memory
system.physmem.bytes_read::switch_cpus07.inst         4864                       # Number of bytes read from this memory
system.physmem.bytes_read::switch_cpus07.data      1780736                       # Number of bytes read from this memory
system.physmem.bytes_read::switch_cpus08.inst         4480                       # Number of bytes read from this memory
system.physmem.bytes_read::switch_cpus08.data      1367936                       # Number of bytes read from this memory
system.physmem.bytes_read::switch_cpus09.inst         4608                       # Number of bytes read from this memory
system.physmem.bytes_read::switch_cpus09.data      2432896                       # Number of bytes read from this memory
system.physmem.bytes_read::switch_cpus10.inst         4992                       # Number of bytes read from this memory
system.physmem.bytes_read::switch_cpus10.data      1776384                       # Number of bytes read from this memory
system.physmem.bytes_read::switch_cpus11.inst         5120                       # Number of bytes read from this memory
system.physmem.bytes_read::switch_cpus11.data      4091520                       # Number of bytes read from this memory
system.physmem.bytes_read::switch_cpus12.inst         5120                       # Number of bytes read from this memory
system.physmem.bytes_read::switch_cpus12.data      4026240                       # Number of bytes read from this memory
system.physmem.bytes_read::switch_cpus13.inst         4864                       # Number of bytes read from this memory
system.physmem.bytes_read::switch_cpus13.data      2454400                       # Number of bytes read from this memory
system.physmem.bytes_read::switch_cpus14.inst         4608                       # Number of bytes read from this memory
system.physmem.bytes_read::switch_cpus14.data      2358144                       # Number of bytes read from this memory
system.physmem.bytes_read::switch_cpus15.inst         4352                       # Number of bytes read from this memory
system.physmem.bytes_read::switch_cpus15.data      1312512                       # Number of bytes read from this memory
system.physmem.bytes_read::total             37552128                       # Number of bytes read from this memory
system.physmem.bytes_inst_read::switch_cpus00.inst         4608                       # Number of instructions bytes read from this memory
system.physmem.bytes_inst_read::switch_cpus01.inst         4736                       # Number of instructions bytes read from this memory
system.physmem.bytes_inst_read::switch_cpus02.inst         4736                       # Number of instructions bytes read from this memory
system.physmem.bytes_inst_read::switch_cpus03.inst         5248                       # Number of instructions bytes read from this memory
system.physmem.bytes_inst_read::switch_cpus04.inst         4992                       # Number of instructions bytes read from this memory
system.physmem.bytes_inst_read::switch_cpus05.inst         4480                       # Number of instructions bytes read from this memory
system.physmem.bytes_inst_read::switch_cpus06.inst         4352                       # Number of instructions bytes read from this memory
system.physmem.bytes_inst_read::switch_cpus07.inst         4864                       # Number of instructions bytes read from this memory
system.physmem.bytes_inst_read::switch_cpus08.inst         4480                       # Number of instructions bytes read from this memory
system.physmem.bytes_inst_read::switch_cpus09.inst         4608                       # Number of instructions bytes read from this memory
system.physmem.bytes_inst_read::switch_cpus10.inst         4992                       # Number of instructions bytes read from this memory
system.physmem.bytes_inst_read::switch_cpus11.inst         5120                       # Number of instructions bytes read from this memory
system.physmem.bytes_inst_read::switch_cpus12.inst         5120                       # Number of instructions bytes read from this memory
system.physmem.bytes_inst_read::switch_cpus13.inst         4864                       # Number of instructions bytes read from this memory
system.physmem.bytes_inst_read::switch_cpus14.inst         4608                       # Number of instructions bytes read from this memory
system.physmem.bytes_inst_read::switch_cpus15.inst         4352                       # Number of instructions bytes read from this memory
system.physmem.bytes_inst_read::total           76160                       # Number of instructions bytes read from this memory
system.physmem.bytes_written::writebacks     12869376                       # Number of bytes written to this memory
system.physmem.bytes_written::total          12869376                       # Number of bytes written to this memory
system.physmem.num_reads::switch_cpus00.inst           36                       # Number of read requests responded to by this memory
system.physmem.num_reads::switch_cpus00.data        19284                       # Number of read requests responded to by this memory
system.physmem.num_reads::switch_cpus01.inst           37                       # Number of read requests responded to by this memory
system.physmem.num_reads::switch_cpus01.data        18729                       # Number of read requests responded to by this memory
system.physmem.num_reads::switch_cpus02.inst           37                       # Number of read requests responded to by this memory
system.physmem.num_reads::switch_cpus02.data        10802                       # Number of read requests responded to by this memory
system.physmem.num_reads::switch_cpus03.inst           41                       # Number of read requests responded to by this memory
system.physmem.num_reads::switch_cpus03.data        13859                       # Number of read requests responded to by this memory
system.physmem.num_reads::switch_cpus04.inst           39                       # Number of read requests responded to by this memory
system.physmem.num_reads::switch_cpus04.data        31713                       # Number of read requests responded to by this memory
system.physmem.num_reads::switch_cpus05.inst           35                       # Number of read requests responded to by this memory
system.physmem.num_reads::switch_cpus05.data        10678                       # Number of read requests responded to by this memory
system.physmem.num_reads::switch_cpus06.inst           34                       # Number of read requests responded to by this memory
system.physmem.num_reads::switch_cpus06.data        18960                       # Number of read requests responded to by this memory
system.physmem.num_reads::switch_cpus07.inst           38                       # Number of read requests responded to by this memory
system.physmem.num_reads::switch_cpus07.data        13912                       # Number of read requests responded to by this memory
system.physmem.num_reads::switch_cpus08.inst           35                       # Number of read requests responded to by this memory
system.physmem.num_reads::switch_cpus08.data        10687                       # Number of read requests responded to by this memory
system.physmem.num_reads::switch_cpus09.inst           36                       # Number of read requests responded to by this memory
system.physmem.num_reads::switch_cpus09.data        19007                       # Number of read requests responded to by this memory
system.physmem.num_reads::switch_cpus10.inst           39                       # Number of read requests responded to by this memory
system.physmem.num_reads::switch_cpus10.data        13878                       # Number of read requests responded to by this memory
system.physmem.num_reads::switch_cpus11.inst           40                       # Number of read requests responded to by this memory
system.physmem.num_reads::switch_cpus11.data        31965                       # Number of read requests responded to by this memory
system.physmem.num_reads::switch_cpus12.inst           40                       # Number of read requests responded to by this memory
system.physmem.num_reads::switch_cpus12.data        31455                       # Number of read requests responded to by this memory
system.physmem.num_reads::switch_cpus13.inst           38                       # Number of read requests responded to by this memory
system.physmem.num_reads::switch_cpus13.data        19175                       # Number of read requests responded to by this memory
system.physmem.num_reads::switch_cpus14.inst           36                       # Number of read requests responded to by this memory
system.physmem.num_reads::switch_cpus14.data        18423                       # Number of read requests responded to by this memory
system.physmem.num_reads::switch_cpus15.inst           34                       # Number of read requests responded to by this memory
system.physmem.num_reads::switch_cpus15.data        10254                       # Number of read requests responded to by this memory
system.physmem.num_reads::total                293376                       # Number of read requests responded to by this memory
system.physmem.num_writes::writebacks          100542                       # Number of write requests responded to by this memory
system.physmem.num_writes::functional               0                       # Number of write requests responded to by this memory
system.physmem.num_writes::interrupt                0                       # Number of write requests responded to by this memory
system.physmem.num_writes::switch_cpus00.dtb.walker            0                       # Number of write requests responded to by this memory
system.physmem.num_writes::switch_cpus00.itb.walker            0                       # Number of write requests responded to by this memory
system.physmem.num_writes::switch_cpus00.inst            0                       # Number of write requests responded to by this memory
system.physmem.num_writes::switch_cpus00.data            0                       # Number of write requests responded to by this memory
system.physmem.num_writes::switch_cpus01.dtb.walker            0                       # Number of write requests responded to by this memory
system.physmem.num_writes::switch_cpus01.itb.walker            0                       # Number of write requests responded to by this memory
system.physmem.num_writes::switch_cpus01.inst            0                       # Number of write requests responded to by this memory
system.physmem.num_writes::switch_cpus01.data            0                       # Number of write requests responded to by this memory
system.physmem.num_writes::switch_cpus02.dtb.walker            0                       # Number of write requests responded to by this memory
system.physmem.num_writes::switch_cpus02.itb.walker            0                       # Number of write requests responded to by this memory
system.physmem.num_writes::switch_cpus02.inst            0                       # Number of write requests responded to by this memory
system.physmem.num_writes::switch_cpus02.data            0                       # Number of write requests responded to by this memory
system.physmem.num_writes::switch_cpus03.dtb.walker            0                       # Number of write requests responded to by this memory
system.physmem.num_writes::switch_cpus03.itb.walker            0                       # Number of write requests responded to by this memory
system.physmem.num_writes::switch_cpus03.inst            0                       # Number of write requests responded to by this memory
system.physmem.num_writes::switch_cpus03.data            0                       # Number of write requests responded to by this memory
system.physmem.num_writes::switch_cpus04.dtb.walker            0                       # Number of write requests responded to by this memory
system.physmem.num_writes::switch_cpus04.itb.walker            0                       # Number of write requests responded to by this memory
system.physmem.num_writes::switch_cpus04.inst            0                       # Number of write requests responded to by this memory
system.physmem.num_writes::switch_cpus04.data            0                       # Number of write requests responded to by this memory
system.physmem.num_writes::switch_cpus05.dtb.walker            0                       # Number of write requests responded to by this memory
system.physmem.num_writes::switch_cpus05.itb.walker            0                       # Number of write requests responded to by this memory
system.physmem.num_writes::switch_cpus05.inst            0                       # Number of write requests responded to by this memory
system.physmem.num_writes::switch_cpus05.data            0                       # Number of write requests responded to by this memory
system.physmem.num_writes::switch_cpus06.dtb.walker            0                       # Number of write requests responded to by this memory
system.physmem.num_writes::switch_cpus06.itb.walker            0                       # Number of write requests responded to by this memory
system.physmem.num_writes::switch_cpus06.inst            0                       # Number of write requests responded to by this memory
system.physmem.num_writes::switch_cpus06.data            0                       # Number of write requests responded to by this memory
system.physmem.num_writes::switch_cpus07.dtb.walker            0                       # Number of write requests responded to by this memory
system.physmem.num_writes::switch_cpus07.itb.walker            0                       # Number of write requests responded to by this memory
system.physmem.num_writes::switch_cpus07.inst            0                       # Number of write requests responded to by this memory
system.physmem.num_writes::switch_cpus07.data            0                       # Number of write requests responded to by this memory
system.physmem.num_writes::switch_cpus08.dtb.walker            0                       # Number of write requests responded to by this memory
system.physmem.num_writes::switch_cpus08.itb.walker            0                       # Number of write requests responded to by this memory
system.physmem.num_writes::switch_cpus08.inst            0                       # Number of write requests responded to by this memory
system.physmem.num_writes::switch_cpus08.data            0                       # Number of write requests responded to by this memory
system.physmem.num_writes::switch_cpus09.dtb.walker            0                       # Number of write requests responded to by this memory
system.physmem.num_writes::switch_cpus09.itb.walker            0                       # Number of write requests responded to by this memory
system.physmem.num_writes::switch_cpus09.inst            0                       # Number of write requests responded to by this memory
system.physmem.num_writes::switch_cpus09.data            0                       # Number of write requests responded to by this memory
system.physmem.num_writes::switch_cpus10.dtb.walker            0                       # Number of write requests responded to by this memory
system.physmem.num_writes::switch_cpus10.itb.walker            0                       # Number of write requests responded to by this memory
system.physmem.num_writes::switch_cpus10.inst            0                       # Number of write requests responded to by this memory
system.physmem.num_writes::switch_cpus10.data            0                       # Number of write requests responded to by this memory
system.physmem.num_writes::switch_cpus11.dtb.walker            0                       # Number of write requests responded to by this memory
system.physmem.num_writes::switch_cpus11.itb.walker            0                       # Number of write requests responded to by this memory
system.physmem.num_writes::switch_cpus11.inst            0                       # Number of write requests responded to by this memory
system.physmem.num_writes::switch_cpus11.data            0                       # Number of write requests responded to by this memory
system.physmem.num_writes::switch_cpus12.dtb.walker            0                       # Number of write requests responded to by this memory
system.physmem.num_writes::switch_cpus12.itb.walker            0                       # Number of write requests responded to by this memory
system.physmem.num_writes::switch_cpus12.inst            0                       # Number of write requests responded to by this memory
system.physmem.num_writes::switch_cpus12.data            0                       # Number of write requests responded to by this memory
system.physmem.num_writes::switch_cpus13.dtb.walker            0                       # Number of write requests responded to by this memory
system.physmem.num_writes::switch_cpus13.itb.walker            0                       # Number of write requests responded to by this memory
system.physmem.num_writes::switch_cpus13.inst            0                       # Number of write requests responded to by this memory
system.physmem.num_writes::switch_cpus13.data            0                       # Number of write requests responded to by this memory
system.physmem.num_writes::switch_cpus14.dtb.walker            0                       # Number of write requests responded to by this memory
system.physmem.num_writes::switch_cpus14.itb.walker            0                       # Number of write requests responded to by this memory
system.physmem.num_writes::switch_cpus14.inst            0                       # Number of write requests responded to by this memory
system.physmem.num_writes::switch_cpus14.data            0                       # Number of write requests responded to by this memory
system.physmem.num_writes::switch_cpus15.dtb.walker            0                       # Number of write requests responded to by this memory
system.physmem.num_writes::switch_cpus15.itb.walker            0                       # Number of write requests responded to by this memory
system.physmem.num_writes::switch_cpus15.inst            0                       # Number of write requests responded to by this memory
system.physmem.num_writes::switch_cpus15.data            0                       # Number of write requests responded to by this memory
system.physmem.num_writes::cpu00.dtb.walker            0                       # Number of write requests responded to by this memory
system.physmem.num_writes::cpu00.itb.walker            0                       # Number of write requests responded to by this memory
system.physmem.num_writes::cpu00.inst               0                       # Number of write requests responded to by this memory
system.physmem.num_writes::cpu00.data               0                       # Number of write requests responded to by this memory
system.physmem.num_writes::cpu01.dtb.walker            0                       # Number of write requests responded to by this memory
system.physmem.num_writes::cpu01.itb.walker            0                       # Number of write requests responded to by this memory
system.physmem.num_writes::cpu01.inst               0                       # Number of write requests responded to by this memory
system.physmem.num_writes::cpu01.data               0                       # Number of write requests responded to by this memory
system.physmem.num_writes::cpu02.dtb.walker            0                       # Number of write requests responded to by this memory
system.physmem.num_writes::cpu02.itb.walker            0                       # Number of write requests responded to by this memory
system.physmem.num_writes::cpu02.inst               0                       # Number of write requests responded to by this memory
system.physmem.num_writes::cpu02.data               0                       # Number of write requests responded to by this memory
system.physmem.num_writes::cpu03.dtb.walker            0                       # Number of write requests responded to by this memory
system.physmem.num_writes::cpu03.itb.walker            0                       # Number of write requests responded to by this memory
system.physmem.num_writes::cpu03.inst               0                       # Number of write requests responded to by this memory
system.physmem.num_writes::cpu03.data               0                       # Number of write requests responded to by this memory
system.physmem.num_writes::cpu04.dtb.walker            0                       # Number of write requests responded to by this memory
system.physmem.num_writes::cpu04.itb.walker            0                       # Number of write requests responded to by this memory
system.physmem.num_writes::cpu04.inst               0                       # Number of write requests responded to by this memory
system.physmem.num_writes::cpu04.data               0                       # Number of write requests responded to by this memory
system.physmem.num_writes::cpu05.dtb.walker            0                       # Number of write requests responded to by this memory
system.physmem.num_writes::cpu05.itb.walker            0                       # Number of write requests responded to by this memory
system.physmem.num_writes::cpu05.inst               0                       # Number of write requests responded to by this memory
system.physmem.num_writes::cpu05.data               0                       # Number of write requests responded to by this memory
system.physmem.num_writes::cpu06.dtb.walker            0                       # Number of write requests responded to by this memory
system.physmem.num_writes::cpu06.itb.walker            0                       # Number of write requests responded to by this memory
system.physmem.num_writes::cpu06.inst               0                       # Number of write requests responded to by this memory
system.physmem.num_writes::cpu06.data               0                       # Number of write requests responded to by this memory
system.physmem.num_writes::cpu07.dtb.walker            0                       # Number of write requests responded to by this memory
system.physmem.num_writes::cpu07.itb.walker            0                       # Number of write requests responded to by this memory
system.physmem.num_writes::cpu07.inst               0                       # Number of write requests responded to by this memory
system.physmem.num_writes::cpu07.data               0                       # Number of write requests responded to by this memory
system.physmem.num_writes::cpu08.dtb.walker            0                       # Number of write requests responded to by this memory
system.physmem.num_writes::cpu08.itb.walker            0                       # Number of write requests responded to by this memory
system.physmem.num_writes::cpu08.inst               0                       # Number of write requests responded to by this memory
system.physmem.num_writes::cpu08.data               0                       # Number of write requests responded to by this memory
system.physmem.num_writes::cpu09.dtb.walker            0                       # Number of write requests responded to by this memory
system.physmem.num_writes::cpu09.itb.walker            0                       # Number of write requests responded to by this memory
system.physmem.num_writes::cpu09.inst               0                       # Number of write requests responded to by this memory
system.physmem.num_writes::cpu09.data               0                       # Number of write requests responded to by this memory
system.physmem.num_writes::cpu10.dtb.walker            0                       # Number of write requests responded to by this memory
system.physmem.num_writes::cpu10.itb.walker            0                       # Number of write requests responded to by this memory
system.physmem.num_writes::cpu10.inst               0                       # Number of write requests responded to by this memory
system.physmem.num_writes::cpu10.data               0                       # Number of write requests responded to by this memory
system.physmem.num_writes::cpu11.dtb.walker            0                       # Number of write requests responded to by this memory
system.physmem.num_writes::cpu11.itb.walker            0                       # Number of write requests responded to by this memory
system.physmem.num_writes::cpu11.inst               0                       # Number of write requests responded to by this memory
system.physmem.num_writes::cpu11.data               0                       # Number of write requests responded to by this memory
system.physmem.num_writes::cpu12.dtb.walker            0                       # Number of write requests responded to by this memory
system.physmem.num_writes::cpu12.itb.walker            0                       # Number of write requests responded to by this memory
system.physmem.num_writes::cpu12.inst               0                       # Number of write requests responded to by this memory
system.physmem.num_writes::cpu12.data               0                       # Number of write requests responded to by this memory
system.physmem.num_writes::cpu13.dtb.walker            0                       # Number of write requests responded to by this memory
system.physmem.num_writes::cpu13.itb.walker            0                       # Number of write requests responded to by this memory
system.physmem.num_writes::cpu13.inst               0                       # Number of write requests responded to by this memory
system.physmem.num_writes::cpu13.data               0                       # Number of write requests responded to by this memory
system.physmem.num_writes::cpu14.dtb.walker            0                       # Number of write requests responded to by this memory
system.physmem.num_writes::cpu14.itb.walker            0                       # Number of write requests responded to by this memory
system.physmem.num_writes::cpu14.inst               0                       # Number of write requests responded to by this memory
system.physmem.num_writes::cpu14.data               0                       # Number of write requests responded to by this memory
system.physmem.num_writes::cpu15.dtb.walker            0                       # Number of write requests responded to by this memory
system.physmem.num_writes::cpu15.itb.walker            0                       # Number of write requests responded to by this memory
system.physmem.num_writes::cpu15.inst               0                       # Number of write requests responded to by this memory
system.physmem.num_writes::cpu15.data               0                       # Number of write requests responded to by this memory
system.physmem.num_writes::total               100542                       # Number of write requests responded to by this memory
system.physmem.bw_read::switch_cpus00.inst        43454                       # Total read bandwidth from this memory (bytes/s)
system.physmem.bw_read::switch_cpus00.data     23276990                       # Total read bandwidth from this memory (bytes/s)
system.physmem.bw_read::switch_cpus01.inst        44661                       # Total read bandwidth from this memory (bytes/s)
system.physmem.bw_read::switch_cpus01.data     22607070                       # Total read bandwidth from this memory (bytes/s)
system.physmem.bw_read::switch_cpus02.inst        44661                       # Total read bandwidth from this memory (bytes/s)
system.physmem.bw_read::switch_cpus02.data     13038687                       # Total read bandwidth from this memory (bytes/s)
system.physmem.bw_read::switch_cpus03.inst        49490                       # Total read bandwidth from this memory (bytes/s)
system.physmem.bw_read::switch_cpus03.data     16728677                       # Total read bandwidth from this memory (bytes/s)
system.physmem.bw_read::switch_cpus04.inst        47075                       # Total read bandwidth from this memory (bytes/s)
system.physmem.bw_read::switch_cpus04.data     38279568                       # Total read bandwidth from this memory (bytes/s)
system.physmem.bw_read::switch_cpus05.inst        42247                       # Total read bandwidth from this memory (bytes/s)
system.physmem.bw_read::switch_cpus05.data     12889012                       # Total read bandwidth from this memory (bytes/s)
system.physmem.bw_read::switch_cpus06.inst        41040                       # Total read bandwidth from this memory (bytes/s)
system.physmem.bw_read::switch_cpus06.data     22885902                       # Total read bandwidth from this memory (bytes/s)
system.physmem.bw_read::switch_cpus07.inst        45868                       # Total read bandwidth from this memory (bytes/s)
system.physmem.bw_read::switch_cpus07.data     16792651                       # Total read bandwidth from this memory (bytes/s)
system.physmem.bw_read::switch_cpus08.inst        42247                       # Total read bandwidth from this memory (bytes/s)
system.physmem.bw_read::switch_cpus08.data     12899875                       # Total read bandwidth from this memory (bytes/s)
system.physmem.bw_read::switch_cpus09.inst        43454                       # Total read bandwidth from this memory (bytes/s)
system.physmem.bw_read::switch_cpus09.data     22942634                       # Total read bandwidth from this memory (bytes/s)
system.physmem.bw_read::switch_cpus10.inst        47075                       # Total read bandwidth from this memory (bytes/s)
system.physmem.bw_read::switch_cpus10.data     16751611                       # Total read bandwidth from this memory (bytes/s)
system.physmem.bw_read::switch_cpus11.inst        48282                       # Total read bandwidth from this memory (bytes/s)
system.physmem.bw_read::switch_cpus11.data     38583747                       # Total read bandwidth from this memory (bytes/s)
system.physmem.bw_read::switch_cpus12.inst        48282                       # Total read bandwidth from this memory (bytes/s)
system.physmem.bw_read::switch_cpus12.data     37968146                       # Total read bandwidth from this memory (bytes/s)
system.physmem.bw_read::switch_cpus13.inst        45868                       # Total read bandwidth from this memory (bytes/s)
system.physmem.bw_read::switch_cpus13.data     23145420                       # Total read bandwidth from this memory (bytes/s)
system.physmem.bw_read::switch_cpus14.inst        43454                       # Total read bandwidth from this memory (bytes/s)
system.physmem.bw_read::switch_cpus14.data     22237709                       # Total read bandwidth from this memory (bytes/s)
system.physmem.bw_read::switch_cpus15.inst        41040                       # Total read bandwidth from this memory (bytes/s)
system.physmem.bw_read::switch_cpus15.data     12377217                       # Total read bandwidth from this memory (bytes/s)
system.physmem.bw_read::total               354123118                       # Total read bandwidth from this memory (bytes/s)
system.physmem.bw_inst_read::switch_cpus00.inst        43454                       # Instruction read bandwidth from this memory (bytes/s)
system.physmem.bw_inst_read::switch_cpus01.inst        44661                       # Instruction read bandwidth from this memory (bytes/s)
system.physmem.bw_inst_read::switch_cpus02.inst        44661                       # Instruction read bandwidth from this memory (bytes/s)
system.physmem.bw_inst_read::switch_cpus03.inst        49490                       # Instruction read bandwidth from this memory (bytes/s)
system.physmem.bw_inst_read::switch_cpus04.inst        47075                       # Instruction read bandwidth from this memory (bytes/s)
system.physmem.bw_inst_read::switch_cpus05.inst        42247                       # Instruction read bandwidth from this memory (bytes/s)
system.physmem.bw_inst_read::switch_cpus06.inst        41040                       # Instruction read bandwidth from this memory (bytes/s)
system.physmem.bw_inst_read::switch_cpus07.inst        45868                       # Instruction read bandwidth from this memory (bytes/s)
system.physmem.bw_inst_read::switch_cpus08.inst        42247                       # Instruction read bandwidth from this memory (bytes/s)
system.physmem.bw_inst_read::switch_cpus09.inst        43454                       # Instruction read bandwidth from this memory (bytes/s)
system.physmem.bw_inst_read::switch_cpus10.inst        47075                       # Instruction read bandwidth from this memory (bytes/s)
system.physmem.bw_inst_read::switch_cpus11.inst        48282                       # Instruction read bandwidth from this memory (bytes/s)
system.physmem.bw_inst_read::switch_cpus12.inst        48282                       # Instruction read bandwidth from this memory (bytes/s)
system.physmem.bw_inst_read::switch_cpus13.inst        45868                       # Instruction read bandwidth from this memory (bytes/s)
system.physmem.bw_inst_read::switch_cpus14.inst        43454                       # Instruction read bandwidth from this memory (bytes/s)
system.physmem.bw_inst_read::switch_cpus15.inst        41040                       # Instruction read bandwidth from this memory (bytes/s)
system.physmem.bw_inst_read::total             718202                       # Instruction read bandwidth from this memory (bytes/s)
system.physmem.bw_write::writebacks         121360461                       # Write bandwidth from this memory (bytes/s)
system.physmem.bw_write::total              121360461                       # Write bandwidth from this memory (bytes/s)
system.physmem.bw_total::writebacks         121360461                       # Total bandwidth to/from this memory (bytes/s)
system.physmem.bw_total::switch_cpus00.inst        43454                       # Total bandwidth to/from this memory (bytes/s)
system.physmem.bw_total::switch_cpus00.data     23276990                       # Total bandwidth to/from this memory (bytes/s)
system.physmem.bw_total::switch_cpus01.inst        44661                       # Total bandwidth to/from this memory (bytes/s)
system.physmem.bw_total::switch_cpus01.data     22607070                       # Total bandwidth to/from this memory (bytes/s)
system.physmem.bw_total::switch_cpus02.inst        44661                       # Total bandwidth to/from this memory (bytes/s)
system.physmem.bw_total::switch_cpus02.data     13038687                       # Total bandwidth to/from this memory (bytes/s)
system.physmem.bw_total::switch_cpus03.inst        49490                       # Total bandwidth to/from this memory (bytes/s)
system.physmem.bw_total::switch_cpus03.data     16728677                       # Total bandwidth to/from this memory (bytes/s)
system.physmem.bw_total::switch_cpus04.inst        47075                       # Total bandwidth to/from this memory (bytes/s)
system.physmem.bw_total::switch_cpus04.data     38279568                       # Total bandwidth to/from this memory (bytes/s)
system.physmem.bw_total::switch_cpus05.inst        42247                       # Total bandwidth to/from this memory (bytes/s)
system.physmem.bw_total::switch_cpus05.data     12889012                       # Total bandwidth to/from this memory (bytes/s)
system.physmem.bw_total::switch_cpus06.inst        41040                       # Total bandwidth to/from this memory (bytes/s)
system.physmem.bw_total::switch_cpus06.data     22885902                       # Total bandwidth to/from this memory (bytes/s)
system.physmem.bw_total::switch_cpus07.inst        45868                       # Total bandwidth to/from this memory (bytes/s)
system.physmem.bw_total::switch_cpus07.data     16792651                       # Total bandwidth to/from this memory (bytes/s)
system.physmem.bw_total::switch_cpus08.inst        42247                       # Total bandwidth to/from this memory (bytes/s)
system.physmem.bw_total::switch_cpus08.data     12899875                       # Total bandwidth to/from this memory (bytes/s)
system.physmem.bw_total::switch_cpus09.inst        43454                       # Total bandwidth to/from this memory (bytes/s)
system.physmem.bw_total::switch_cpus09.data     22942634                       # Total bandwidth to/from this memory (bytes/s)
system.physmem.bw_total::switch_cpus10.inst        47075                       # Total bandwidth to/from this memory (bytes/s)
system.physmem.bw_total::switch_cpus10.data     16751611                       # Total bandwidth to/from this memory (bytes/s)
system.physmem.bw_total::switch_cpus11.inst        48282                       # Total bandwidth to/from this memory (bytes/s)
system.physmem.bw_total::switch_cpus11.data     38583747                       # Total bandwidth to/from this memory (bytes/s)
system.physmem.bw_total::switch_cpus12.inst        48282                       # Total bandwidth to/from this memory (bytes/s)
system.physmem.bw_total::switch_cpus12.data     37968146                       # Total bandwidth to/from this memory (bytes/s)
system.physmem.bw_total::switch_cpus13.inst        45868                       # Total bandwidth to/from this memory (bytes/s)
system.physmem.bw_total::switch_cpus13.data     23145420                       # Total bandwidth to/from this memory (bytes/s)
system.physmem.bw_total::switch_cpus14.inst        43454                       # Total bandwidth to/from this memory (bytes/s)
system.physmem.bw_total::switch_cpus14.data     22237709                       # Total bandwidth to/from this memory (bytes/s)
system.physmem.bw_total::switch_cpus15.inst        41040                       # Total bandwidth to/from this memory (bytes/s)
system.physmem.bw_total::switch_cpus15.data     12377217                       # Total bandwidth to/from this memory (bytes/s)
system.physmem.bw_total::total              475483578                       # Total bandwidth to/from this memory (bytes/s)
system.switch_cpus00.dtb.inst_hits                  0                       # ITB inst hits
system.switch_cpus00.dtb.inst_misses                0                       # ITB inst misses
system.switch_cpus00.dtb.read_hits                  0                       # DTB read hits
system.switch_cpus00.dtb.read_misses                0                       # DTB read misses
system.switch_cpus00.dtb.write_hits                 0                       # DTB write hits
system.switch_cpus00.dtb.write_misses               0                       # DTB write misses
system.switch_cpus00.dtb.flush_tlb                  0                       # Number of times complete TLB was flushed
system.switch_cpus00.dtb.flush_tlb_mva              0                       # Number of times TLB was flushed by MVA
system.switch_cpus00.dtb.flush_tlb_mva_asid            0                       # Number of times TLB was flushed by MVA & ASID
system.switch_cpus00.dtb.flush_tlb_asid             0                       # Number of times TLB was flushed by ASID
system.switch_cpus00.dtb.flush_entries              0                       # Number of entries that have been flushed from TLB
system.switch_cpus00.dtb.align_faults               0                       # Number of TLB faults due to alignment restrictions
system.switch_cpus00.dtb.prefetch_faults            0                       # Number of TLB faults due to prefetch
system.switch_cpus00.dtb.domain_faults              0                       # Number of TLB faults due to domain restrictions
system.switch_cpus00.dtb.perms_faults               0                       # Number of TLB faults due to permissions restrictions
system.switch_cpus00.dtb.read_accesses              0                       # DTB read accesses
system.switch_cpus00.dtb.write_accesses             0                       # DTB write accesses
system.switch_cpus00.dtb.inst_accesses              0                       # ITB inst accesses
system.switch_cpus00.dtb.hits                       0                       # DTB hits
system.switch_cpus00.dtb.misses                     0                       # DTB misses
system.switch_cpus00.dtb.accesses                   0                       # DTB accesses
system.switch_cpus00.itb.inst_hits                  0                       # ITB inst hits
system.switch_cpus00.itb.inst_misses                0                       # ITB inst misses
system.switch_cpus00.itb.read_hits                  0                       # DTB read hits
system.switch_cpus00.itb.read_misses                0                       # DTB read misses
system.switch_cpus00.itb.write_hits                 0                       # DTB write hits
system.switch_cpus00.itb.write_misses               0                       # DTB write misses
system.switch_cpus00.itb.flush_tlb                  0                       # Number of times complete TLB was flushed
system.switch_cpus00.itb.flush_tlb_mva              0                       # Number of times TLB was flushed by MVA
system.switch_cpus00.itb.flush_tlb_mva_asid            0                       # Number of times TLB was flushed by MVA & ASID
system.switch_cpus00.itb.flush_tlb_asid             0                       # Number of times TLB was flushed by ASID
system.switch_cpus00.itb.flush_entries              0                       # Number of entries that have been flushed from TLB
system.switch_cpus00.itb.align_faults               0                       # Number of TLB faults due to alignment restrictions
system.switch_cpus00.itb.prefetch_faults            0                       # Number of TLB faults due to prefetch
system.switch_cpus00.itb.domain_faults              0                       # Number of TLB faults due to domain restrictions
system.switch_cpus00.itb.perms_faults               0                       # Number of TLB faults due to permissions restrictions
system.switch_cpus00.itb.read_accesses              0                       # DTB read accesses
system.switch_cpus00.itb.write_accesses             0                       # DTB write accesses
system.switch_cpus00.itb.inst_accesses              0                       # ITB inst accesses
system.switch_cpus00.itb.hits                       0                       # DTB hits
system.switch_cpus00.itb.misses                     0                       # DTB misses
system.switch_cpus00.itb.accesses                   0                       # DTB accesses
system.cpu00.workload.num_syscalls                 52                       # Number of system calls
system.switch_cpus00.numCycles              254298747                       # number of cpu cycles simulated
system.switch_cpus00.numWorkItemsStarted            0                       # number of work items this cpu started
system.switch_cpus00.numWorkItemsCompleted            0                       # number of work items this cpu completed
system.switch_cpus00.BPredUnit.lookups       20701420                       # Number of BP lookups
system.switch_cpus00.BPredUnit.condPredicted     16975162                       # Number of conditional branches predicted
system.switch_cpus00.BPredUnit.condIncorrect      2025590                       # Number of conditional branches incorrect
system.switch_cpus00.BPredUnit.BTBLookups      8552215                       # Number of BTB lookups
system.switch_cpus00.BPredUnit.BTBHits        8091721                       # Number of BTB hits
system.switch_cpus00.BPredUnit.BTBCorrect            0                       # Number of correct BTB predictions (this stat may not work properly.
system.switch_cpus00.BPredUnit.usedRAS        2122350                       # Number of times the RAS was used to get a target.
system.switch_cpus00.BPredUnit.RASInCorrect        90390                       # Number of incorrect RAS predictions.
system.switch_cpus00.fetch.icacheStallCycles    197448622                       # Number of cycles fetch is stalled on an Icache miss
system.switch_cpus00.fetch.Insts            117678647                       # Number of instructions fetch has processed
system.switch_cpus00.fetch.Branches          20701420                       # Number of branches that fetch encountered
system.switch_cpus00.fetch.predictedBranches     10214071                       # Number of branches that fetch has predicted taken
system.switch_cpus00.fetch.Cycles            25886121                       # Number of cycles fetch has run and was not squashing or blocked
system.switch_cpus00.fetch.SquashCycles       5756286                       # Number of cycles fetch has spent squashing
system.switch_cpus00.fetch.BlockedCycles      6473425                       # Number of cycles fetch has spent blocked
system.switch_cpus00.fetch.CacheLines        12165124                       # Number of cache lines fetched
system.switch_cpus00.fetch.IcacheSquashes      2010658                       # Number of outstanding Icache misses that were squashed
system.switch_cpus00.fetch.rateDist::samples    233507448                       # Number of instructions fetched each cycle (Total)
system.switch_cpus00.fetch.rateDist::mean     0.616280                       # Number of instructions fetched each cycle (Total)
system.switch_cpus00.fetch.rateDist::stdev     1.967619                       # Number of instructions fetched each cycle (Total)
system.switch_cpus00.fetch.rateDist::underflows            0      0.00%      0.00% # Number of instructions fetched each cycle (Total)
system.switch_cpus00.fetch.rateDist::0      207621327     88.91%     88.91% # Number of instructions fetched each cycle (Total)
system.switch_cpus00.fetch.rateDist::1        2803615      1.20%     90.11% # Number of instructions fetched each cycle (Total)
system.switch_cpus00.fetch.rateDist::2        3239435      1.39%     91.50% # Number of instructions fetched each cycle (Total)
system.switch_cpus00.fetch.rateDist::3        1783860      0.76%     92.27% # Number of instructions fetched each cycle (Total)
system.switch_cpus00.fetch.rateDist::4        2070033      0.89%     93.15% # Number of instructions fetched each cycle (Total)
system.switch_cpus00.fetch.rateDist::5        1127179      0.48%     93.64% # Number of instructions fetched each cycle (Total)
system.switch_cpus00.fetch.rateDist::6         767593      0.33%     93.96% # Number of instructions fetched each cycle (Total)
system.switch_cpus00.fetch.rateDist::7        2005039      0.86%     94.82% # Number of instructions fetched each cycle (Total)
system.switch_cpus00.fetch.rateDist::8       12089367      5.18%    100.00% # Number of instructions fetched each cycle (Total)
system.switch_cpus00.fetch.rateDist::overflows            0      0.00%    100.00% # Number of instructions fetched each cycle (Total)
system.switch_cpus00.fetch.rateDist::min_value            0                       # Number of instructions fetched each cycle (Total)
system.switch_cpus00.fetch.rateDist::max_value            8                       # Number of instructions fetched each cycle (Total)
system.switch_cpus00.fetch.rateDist::total    233507448                       # Number of instructions fetched each cycle (Total)
system.switch_cpus00.fetch.branchRate        0.081406                       # Number of branch fetches per cycle
system.switch_cpus00.fetch.rate              0.462757                       # Number of inst fetches per cycle
system.switch_cpus00.decode.IdleCycles      195863517                       # Number of cycles decode is idle
system.switch_cpus00.decode.BlockedCycles      8089069                       # Number of cycles decode is blocked
system.switch_cpus00.decode.RunCycles        25679499                       # Number of cycles decode is running
system.switch_cpus00.decode.UnblockCycles       194987                       # Number of cycles decode is unblocking
system.switch_cpus00.decode.SquashCycles      3680370                       # Number of cycles decode is squashing
system.switch_cpus00.decode.BranchResolved      3361863                       # Number of times decode resolved a branch
system.switch_cpus00.decode.BranchMispred        18912                       # Number of times decode detected a branch misprediction
system.switch_cpus00.decode.DecodedInsts    143674786                       # Number of instructions handled by decode
system.switch_cpus00.decode.SquashedInsts        93613                       # Number of squashed instructions handled by decode
system.switch_cpus00.rename.SquashCycles      3680370                       # Number of cycles rename is squashing
system.switch_cpus00.rename.IdleCycles      196168411                       # Number of cycles rename is idle
system.switch_cpus00.rename.BlockCycles       2862878                       # Number of cycles rename is blocking
system.switch_cpus00.rename.serializeStallCycles      4367038                       # count of cycles rename stalled for serializing inst
system.switch_cpus00.rename.RunCycles        25582529                       # Number of cycles rename is running
system.switch_cpus00.rename.UnblockCycles       846216                       # Number of cycles rename is unblocking
system.switch_cpus00.rename.RenamedInsts    143584998                       # Number of instructions processed by rename
system.switch_cpus00.rename.ROBFullEvents          235                       # Number of times rename has blocked due to ROB full
system.switch_cpus00.rename.IQFullEvents       220878                       # Number of times rename has blocked due to IQ full
system.switch_cpus00.rename.LSQFullEvents       394624                       # Number of times rename has blocked due to LSQ full
system.switch_cpus00.rename.FullRegisterEvents            1                       # Number of times there has been no free registers
system.switch_cpus00.rename.RenamedOperands    199518771                       # Number of destination operands rename has renamed
system.switch_cpus00.rename.RenameLookups    668591070                       # Number of register rename lookups that rename has made
system.switch_cpus00.rename.int_rename_lookups    668591070                       # Number of integer rename lookups
system.switch_cpus00.rename.CommittedMaps    170291697                       # Number of HB maps that are committed
system.switch_cpus00.rename.UndoneMaps       29227047                       # Number of HB maps that are undone due to squashing
system.switch_cpus00.rename.serializingInsts        37548                       # count of serializing insts renamed
system.switch_cpus00.rename.tempSerializingInsts        20927                       # count of temporary serializing insts renamed
system.switch_cpus00.rename.skidInsts         2271313                       # count of insts added to the skid buffer
system.switch_cpus00.memDep0.insertedLoads     13710324                       # Number of loads inserted to the mem dependence unit.
system.switch_cpus00.memDep0.insertedStores      7469675                       # Number of stores inserted to the mem dependence unit.
system.switch_cpus00.memDep0.conflictingLoads       197070                       # Number of conflicting loads.
system.switch_cpus00.memDep0.conflictingStores      1658049                       # Number of conflicting stores.
system.switch_cpus00.iq.iqInstsAdded        143367108                       # Number of instructions added to the IQ (excludes non-spec)
system.switch_cpus00.iq.iqNonSpecInstsAdded        37619                       # Number of non-speculative instructions added to the IQ
system.switch_cpus00.iq.iqInstsIssued       135443690                       # Number of instructions issued
system.switch_cpus00.iq.iqSquashedInstsIssued       189451                       # Number of squashed instructions issued
system.switch_cpus00.iq.iqSquashedInstsExamined     18010612                       # Number of squashed instructions iterated over during squash; mainly for profiling
system.switch_cpus00.iq.iqSquashedOperandsExamined     41684593                       # Number of squashed operands that are examined and possibly removed from graph
system.switch_cpus00.iq.iqSquashedNonSpecRemoved         4170                       # Number of squashed non-spec instructions that were removed
system.switch_cpus00.iq.issued_per_cycle::samples    233507448                       # Number of insts issued each cycle
system.switch_cpus00.iq.issued_per_cycle::mean     0.580040                       # Number of insts issued each cycle
system.switch_cpus00.iq.issued_per_cycle::stdev     1.269582                       # Number of insts issued each cycle
system.switch_cpus00.iq.issued_per_cycle::underflows            0      0.00%      0.00% # Number of insts issued each cycle
system.switch_cpus00.iq.issued_per_cycle::0    176452737     75.57%     75.57% # Number of insts issued each cycle
system.switch_cpus00.iq.issued_per_cycle::1     22935561      9.82%     85.39% # Number of insts issued each cycle
system.switch_cpus00.iq.issued_per_cycle::2     12329997      5.28%     90.67% # Number of insts issued each cycle
system.switch_cpus00.iq.issued_per_cycle::3      8537961      3.66%     94.33% # Number of insts issued each cycle
system.switch_cpus00.iq.issued_per_cycle::4      7465801      3.20%     97.52% # Number of insts issued each cycle
system.switch_cpus00.iq.issued_per_cycle::5      3829524      1.64%     99.16% # Number of insts issued each cycle
system.switch_cpus00.iq.issued_per_cycle::6       914009      0.39%     99.55% # Number of insts issued each cycle
system.switch_cpus00.iq.issued_per_cycle::7       595490      0.26%     99.81% # Number of insts issued each cycle
system.switch_cpus00.iq.issued_per_cycle::8       446368      0.19%    100.00% # Number of insts issued each cycle
system.switch_cpus00.iq.issued_per_cycle::overflows            0      0.00%    100.00% # Number of insts issued each cycle
system.switch_cpus00.iq.issued_per_cycle::min_value            0                       # Number of insts issued each cycle
system.switch_cpus00.iq.issued_per_cycle::max_value            8                       # Number of insts issued each cycle
system.switch_cpus00.iq.issued_per_cycle::total    233507448                       # Number of insts issued each cycle
system.switch_cpus00.iq.fu_full::No_OpClass            0      0.00%      0.00% # attempts to use FU when none available
system.switch_cpus00.iq.fu_full::IntAlu         35700     12.10%     12.10% # attempts to use FU when none available
system.switch_cpus00.iq.fu_full::IntMult            0      0.00%     12.10% # attempts to use FU when none available
system.switch_cpus00.iq.fu_full::IntDiv             0      0.00%     12.10% # attempts to use FU when none available
system.switch_cpus00.iq.fu_full::FloatAdd            0      0.00%     12.10% # attempts to use FU when none available
system.switch_cpus00.iq.fu_full::FloatCmp            0      0.00%     12.10% # attempts to use FU when none available
system.switch_cpus00.iq.fu_full::FloatCvt            0      0.00%     12.10% # attempts to use FU when none available
system.switch_cpus00.iq.fu_full::FloatMult            0      0.00%     12.10% # attempts to use FU when none available
system.switch_cpus00.iq.fu_full::FloatDiv            0      0.00%     12.10% # attempts to use FU when none available
system.switch_cpus00.iq.fu_full::FloatSqrt            0      0.00%     12.10% # attempts to use FU when none available
system.switch_cpus00.iq.fu_full::SimdAdd            0      0.00%     12.10% # attempts to use FU when none available
system.switch_cpus00.iq.fu_full::SimdAddAcc            0      0.00%     12.10% # attempts to use FU when none available
system.switch_cpus00.iq.fu_full::SimdAlu            0      0.00%     12.10% # attempts to use FU when none available
system.switch_cpus00.iq.fu_full::SimdCmp            0      0.00%     12.10% # attempts to use FU when none available
system.switch_cpus00.iq.fu_full::SimdCvt            0      0.00%     12.10% # attempts to use FU when none available
system.switch_cpus00.iq.fu_full::SimdMisc            0      0.00%     12.10% # attempts to use FU when none available
system.switch_cpus00.iq.fu_full::SimdMult            0      0.00%     12.10% # attempts to use FU when none available
system.switch_cpus00.iq.fu_full::SimdMultAcc            0      0.00%     12.10% # attempts to use FU when none available
system.switch_cpus00.iq.fu_full::SimdShift            0      0.00%     12.10% # attempts to use FU when none available
system.switch_cpus00.iq.fu_full::SimdShiftAcc            0      0.00%     12.10% # attempts to use FU when none available
system.switch_cpus00.iq.fu_full::SimdSqrt            0      0.00%     12.10% # attempts to use FU when none available
system.switch_cpus00.iq.fu_full::SimdFloatAdd            0      0.00%     12.10% # attempts to use FU when none available
system.switch_cpus00.iq.fu_full::SimdFloatAlu            0      0.00%     12.10% # attempts to use FU when none available
system.switch_cpus00.iq.fu_full::SimdFloatCmp            0      0.00%     12.10% # attempts to use FU when none available
system.switch_cpus00.iq.fu_full::SimdFloatCvt            0      0.00%     12.10% # attempts to use FU when none available
system.switch_cpus00.iq.fu_full::SimdFloatDiv            0      0.00%     12.10% # attempts to use FU when none available
system.switch_cpus00.iq.fu_full::SimdFloatMisc            0      0.00%     12.10% # attempts to use FU when none available
system.switch_cpus00.iq.fu_full::SimdFloatMult            0      0.00%     12.10% # attempts to use FU when none available
system.switch_cpus00.iq.fu_full::SimdFloatMultAcc            0      0.00%     12.10% # attempts to use FU when none available
system.switch_cpus00.iq.fu_full::SimdFloatSqrt            0      0.00%     12.10% # attempts to use FU when none available
system.switch_cpus00.iq.fu_full::MemRead       127378     43.16%     55.26% # attempts to use FU when none available
system.switch_cpus00.iq.fu_full::MemWrite       132031     44.74%    100.00% # attempts to use FU when none available
system.switch_cpus00.iq.fu_full::IprAccess            0      0.00%    100.00% # attempts to use FU when none available
system.switch_cpus00.iq.fu_full::InstPrefetch            0      0.00%    100.00% # attempts to use FU when none available
system.switch_cpus00.iq.FU_type_0::No_OpClass            0      0.00%      0.00% # Type of FU issued
system.switch_cpus00.iq.FU_type_0::IntAlu    113368728     83.70%     83.70% # Type of FU issued
system.switch_cpus00.iq.FU_type_0::IntMult      2118761      1.56%     85.27% # Type of FU issued
system.switch_cpus00.iq.FU_type_0::IntDiv            0      0.00%     85.27% # Type of FU issued
system.switch_cpus00.iq.FU_type_0::FloatAdd            0      0.00%     85.27% # Type of FU issued
system.switch_cpus00.iq.FU_type_0::FloatCmp            0      0.00%     85.27% # Type of FU issued
system.switch_cpus00.iq.FU_type_0::FloatCvt            0      0.00%     85.27% # Type of FU issued
system.switch_cpus00.iq.FU_type_0::FloatMult            0      0.00%     85.27% # Type of FU issued
system.switch_cpus00.iq.FU_type_0::FloatDiv            0      0.00%     85.27% # Type of FU issued
system.switch_cpus00.iq.FU_type_0::FloatSqrt            0      0.00%     85.27% # Type of FU issued
system.switch_cpus00.iq.FU_type_0::SimdAdd            0      0.00%     85.27% # Type of FU issued
system.switch_cpus00.iq.FU_type_0::SimdAddAcc            0      0.00%     85.27% # Type of FU issued
system.switch_cpus00.iq.FU_type_0::SimdAlu            0      0.00%     85.27% # Type of FU issued
system.switch_cpus00.iq.FU_type_0::SimdCmp            0      0.00%     85.27% # Type of FU issued
system.switch_cpus00.iq.FU_type_0::SimdCvt            0      0.00%     85.27% # Type of FU issued
system.switch_cpus00.iq.FU_type_0::SimdMisc            0      0.00%     85.27% # Type of FU issued
system.switch_cpus00.iq.FU_type_0::SimdMult            0      0.00%     85.27% # Type of FU issued
system.switch_cpus00.iq.FU_type_0::SimdMultAcc            0      0.00%     85.27% # Type of FU issued
system.switch_cpus00.iq.FU_type_0::SimdShift            0      0.00%     85.27% # Type of FU issued
system.switch_cpus00.iq.FU_type_0::SimdShiftAcc            0      0.00%     85.27% # Type of FU issued
system.switch_cpus00.iq.FU_type_0::SimdSqrt            0      0.00%     85.27% # Type of FU issued
system.switch_cpus00.iq.FU_type_0::SimdFloatAdd            0      0.00%     85.27% # Type of FU issued
system.switch_cpus00.iq.FU_type_0::SimdFloatAlu            0      0.00%     85.27% # Type of FU issued
system.switch_cpus00.iq.FU_type_0::SimdFloatCmp            0      0.00%     85.27% # Type of FU issued
system.switch_cpus00.iq.FU_type_0::SimdFloatCvt            0      0.00%     85.27% # Type of FU issued
system.switch_cpus00.iq.FU_type_0::SimdFloatDiv            0      0.00%     85.27% # Type of FU issued
system.switch_cpus00.iq.FU_type_0::SimdFloatMisc        16584      0.01%     85.28% # Type of FU issued
system.switch_cpus00.iq.FU_type_0::SimdFloatMult            0      0.00%     85.28% # Type of FU issued
system.switch_cpus00.iq.FU_type_0::SimdFloatMultAcc            0      0.00%     85.28% # Type of FU issued
system.switch_cpus00.iq.FU_type_0::SimdFloatSqrt            0      0.00%     85.28% # Type of FU issued
system.switch_cpus00.iq.FU_type_0::MemRead     12524346      9.25%     94.53% # Type of FU issued
system.switch_cpus00.iq.FU_type_0::MemWrite      7415271      5.47%    100.00% # Type of FU issued
system.switch_cpus00.iq.FU_type_0::IprAccess            0      0.00%    100.00% # Type of FU issued
system.switch_cpus00.iq.FU_type_0::InstPrefetch            0      0.00%    100.00% # Type of FU issued
system.switch_cpus00.iq.FU_type_0::total    135443690                       # Type of FU issued
system.switch_cpus00.iq.rate                 0.532616                       # Inst issue rate
system.switch_cpus00.iq.fu_busy_cnt            295109                       # FU busy when requested
system.switch_cpus00.iq.fu_busy_rate         0.002179                       # FU busy rate (busy events/executed inst)
system.switch_cpus00.iq.int_inst_queue_reads    504879385                       # Number of integer instruction queue reads
system.switch_cpus00.iq.int_inst_queue_writes    161416603                       # Number of integer instruction queue writes
system.switch_cpus00.iq.int_inst_queue_wakeup_accesses    133196975                       # Number of integer instruction queue wakeup accesses
system.switch_cpus00.iq.fp_inst_queue_reads            0                       # Number of floating instruction queue reads
system.switch_cpus00.iq.fp_inst_queue_writes            0                       # Number of floating instruction queue writes
system.switch_cpus00.iq.fp_inst_queue_wakeup_accesses            0                       # Number of floating instruction queue wakeup accesses
system.switch_cpus00.iq.int_alu_accesses    135738799                       # Number of integer alu accesses
system.switch_cpus00.iq.fp_alu_accesses             0                       # Number of floating point alu accesses
system.switch_cpus00.iew.lsq.thread0.forwLoads       340959                       # Number of loads that had data forwarded from stores
system.switch_cpus00.iew.lsq.thread0.invAddrLoads            0                       # Number of loads ignored due to an invalid address
system.switch_cpus00.iew.lsq.thread0.squashedLoads      2426642                       # Number of loads squashed
system.switch_cpus00.iew.lsq.thread0.ignoredResponses          843                       # Number of memory responses ignored because the instruction is squashed
system.switch_cpus00.iew.lsq.thread0.memOrderViolation         1267                       # Number of memory ordering violations
system.switch_cpus00.iew.lsq.thread0.squashedStores       169004                       # Number of stores squashed
system.switch_cpus00.iew.lsq.thread0.invAddrSwpfs            0                       # Number of software prefetches ignored due to an invalid address
system.switch_cpus00.iew.lsq.thread0.blockedLoads            0                       # Number of blocked loads due to partial load-store forwarding
system.switch_cpus00.iew.lsq.thread0.rescheduledLoads         8291                       # Number of loads that were rescheduled
system.switch_cpus00.iew.lsq.thread0.cacheBlocked            0                       # Number of times an access to memory failed due to the cache being blocked
system.switch_cpus00.iew.iewIdleCycles              0                       # Number of cycles IEW is idle
system.switch_cpus00.iew.iewSquashCycles      3680370                       # Number of cycles IEW is squashing
system.switch_cpus00.iew.iewBlockCycles       2364641                       # Number of cycles IEW is blocking
system.switch_cpus00.iew.iewUnblockCycles       146700                       # Number of cycles IEW is unblocking
system.switch_cpus00.iew.iewDispatchedInsts    143404851                       # Number of instructions dispatched to IQ
system.switch_cpus00.iew.iewDispSquashedInsts        57314                       # Number of squashed instructions skipped by dispatch
system.switch_cpus00.iew.iewDispLoadInsts     13710324                       # Number of dispatched load instructions
system.switch_cpus00.iew.iewDispStoreInsts      7469675                       # Number of dispatched store instructions
system.switch_cpus00.iew.iewDispNonSpecInsts        20916                       # Number of dispatched non-speculative instructions
system.switch_cpus00.iew.iewIQFullEvents       104027                       # Number of times the IQ has become full, causing a stall
system.switch_cpus00.iew.iewLSQFullEvents            5                       # Number of times the LSQ has become full, causing a stall
system.switch_cpus00.iew.memOrderViolationEvents         1267                       # Number of memory order violations
system.switch_cpus00.iew.predictedTakenIncorrect      1171387                       # Number of branches that were predicted taken incorrectly
system.switch_cpus00.iew.predictedNotTakenIncorrect      1140118                       # Number of branches that were predicted not taken incorrectly
system.switch_cpus00.iew.branchMispredicts      2311505                       # Number of branch mispredicts detected at execute
system.switch_cpus00.iew.iewExecutedInsts    133451134                       # Number of executed instructions
system.switch_cpus00.iew.iewExecLoadInsts     11758261                       # Number of load instructions executed
system.switch_cpus00.iew.iewExecSquashedInsts      1992553                       # Number of squashed instructions skipped in execute
system.switch_cpus00.iew.exec_swp                   0                       # number of swp insts executed
system.switch_cpus00.iew.exec_nop                 124                       # number of nop insts executed
system.switch_cpus00.iew.exec_refs           19171401                       # number of memory reference insts executed
system.switch_cpus00.iew.exec_branches       18670138                       # Number of branches executed
system.switch_cpus00.iew.exec_stores          7413140                       # Number of stores executed
system.switch_cpus00.iew.exec_rate           0.524781                       # Inst execution rate
system.switch_cpus00.iew.wb_sent            133199101                       # cumulative count of insts sent to commit
system.switch_cpus00.iew.wb_count           133196975                       # cumulative count of insts written-back
system.switch_cpus00.iew.wb_producers        79169418                       # num instructions producing a value
system.switch_cpus00.iew.wb_consumers       207421954                       # num instructions consuming a value
system.switch_cpus00.iew.wb_penalized               0                       # number of instrctions required to write to 'other' IQ
system.switch_cpus00.iew.wb_rate             0.523781                       # insts written-back per cycle
system.switch_cpus00.iew.wb_fanout           0.381683                       # average fanout of values written-back
system.switch_cpus00.iew.wb_penalized_rate            0                       # fraction of instructions written-back that wrote to 'other' IQ
system.switch_cpus00.commit.commitCommittedInsts    100000004                       # The number of committed instructions
system.switch_cpus00.commit.commitCommittedOps    122687897                       # The number of committed instructions
system.switch_cpus00.commit.commitSquashedInsts     20718320                       # The number of squashed insts skipped by commit
system.switch_cpus00.commit.commitNonSpecStalls        33449                       # The number of times commit has been forced to stall to communicate backwards
system.switch_cpus00.commit.branchMispredicts      2037284                       # The number of times a branch was mispredicted
system.switch_cpus00.commit.committed_per_cycle::samples    229827078                       # Number of insts commited each cycle
system.switch_cpus00.commit.committed_per_cycle::mean     0.533827                       # Number of insts commited each cycle
system.switch_cpus00.commit.committed_per_cycle::stdev     1.352987                       # Number of insts commited each cycle
system.switch_cpus00.commit.committed_per_cycle::underflows            0      0.00%      0.00% # Number of insts commited each cycle
system.switch_cpus00.commit.committed_per_cycle::0    179716141     78.20%     78.20% # Number of insts commited each cycle
system.switch_cpus00.commit.committed_per_cycle::1     23236491     10.11%     88.31% # Number of insts commited each cycle
system.switch_cpus00.commit.committed_per_cycle::2      9738387      4.24%     92.54% # Number of insts commited each cycle
system.switch_cpus00.commit.committed_per_cycle::3      5847697      2.54%     95.09% # Number of insts commited each cycle
system.switch_cpus00.commit.committed_per_cycle::4      4054607      1.76%     96.85% # Number of insts commited each cycle
system.switch_cpus00.commit.committed_per_cycle::5      2615436      1.14%     97.99% # Number of insts commited each cycle
system.switch_cpus00.commit.committed_per_cycle::6      1358665      0.59%     98.58% # Number of insts commited each cycle
system.switch_cpus00.commit.committed_per_cycle::7      1093289      0.48%     99.06% # Number of insts commited each cycle
system.switch_cpus00.commit.committed_per_cycle::8      2166365      0.94%    100.00% # Number of insts commited each cycle
system.switch_cpus00.commit.committed_per_cycle::overflows            0      0.00%    100.00% # Number of insts commited each cycle
system.switch_cpus00.commit.committed_per_cycle::min_value            0                       # Number of insts commited each cycle
system.switch_cpus00.commit.committed_per_cycle::max_value            8                       # Number of insts commited each cycle
system.switch_cpus00.commit.committed_per_cycle::total    229827078                       # Number of insts commited each cycle
system.switch_cpus00.commit.committedInsts    100000004                       # Number of instructions committed
system.switch_cpus00.commit.committedOps    122687897                       # Number of ops (including micro ops) committed
system.switch_cpus00.commit.swp_count               0                       # Number of s/w prefetches committed
system.switch_cpus00.commit.refs             18584353                       # Number of memory references committed
system.switch_cpus00.commit.loads            11283682                       # Number of loads committed
system.switch_cpus00.commit.membars             16688                       # Number of memory barriers committed
system.switch_cpus00.commit.branches         17558823                       # Number of branches committed
system.switch_cpus00.commit.fp_insts                0                       # Number of committed floating point instructions.
system.switch_cpus00.commit.int_insts       110607969                       # Number of committed integer instructions.
system.switch_cpus00.commit.function_calls      2496074                       # Number of function calls committed.
system.switch_cpus00.commit.bw_lim_events      2166365                       # number cycles where commit BW limit reached
system.switch_cpus00.commit.bw_limited              0                       # number of insts not committed due to BW limits
system.switch_cpus00.rob.rob_reads          371066254                       # The number of ROB reads
system.switch_cpus00.rob.rob_writes         290492890                       # The number of ROB writes
system.switch_cpus00.timesIdled               3024623                       # Number of times that the entire CPU went into an idle state and unscheduled itself
system.switch_cpus00.idleCycles              20791299                       # Total number of cycles that the CPU has spent unscheduled due to idling
system.switch_cpus00.committedInsts         100000004                       # Number of Instructions Simulated
system.switch_cpus00.committedOps           122687897                       # Number of Ops (including micro ops) Simulated
system.switch_cpus00.committedInsts_total    100000004                       # Number of Instructions Simulated
system.switch_cpus00.cpi                     2.542987                       # CPI: Cycles Per Instruction
system.switch_cpus00.cpi_total               2.542987                       # CPI: Total CPI of All Threads
system.switch_cpus00.ipc                     0.393238                       # IPC: Instructions Per Cycle
system.switch_cpus00.ipc_total               0.393238                       # IPC: Total IPC of All Threads
system.switch_cpus00.int_regfile_reads      601969512                       # number of integer regfile reads
system.switch_cpus00.int_regfile_writes     184862189                       # number of integer regfile writes
system.switch_cpus00.misc_regfile_reads     134064553                       # number of misc regfile reads
system.switch_cpus00.misc_regfile_writes        33418                       # number of misc regfile writes
system.switch_cpus01.dtb.inst_hits                  0                       # ITB inst hits
system.switch_cpus01.dtb.inst_misses                0                       # ITB inst misses
system.switch_cpus01.dtb.read_hits                  0                       # DTB read hits
system.switch_cpus01.dtb.read_misses                0                       # DTB read misses
system.switch_cpus01.dtb.write_hits                 0                       # DTB write hits
system.switch_cpus01.dtb.write_misses               0                       # DTB write misses
system.switch_cpus01.dtb.flush_tlb                  0                       # Number of times complete TLB was flushed
system.switch_cpus01.dtb.flush_tlb_mva              0                       # Number of times TLB was flushed by MVA
system.switch_cpus01.dtb.flush_tlb_mva_asid            0                       # Number of times TLB was flushed by MVA & ASID
system.switch_cpus01.dtb.flush_tlb_asid             0                       # Number of times TLB was flushed by ASID
system.switch_cpus01.dtb.flush_entries              0                       # Number of entries that have been flushed from TLB
system.switch_cpus01.dtb.align_faults               0                       # Number of TLB faults due to alignment restrictions
system.switch_cpus01.dtb.prefetch_faults            0                       # Number of TLB faults due to prefetch
system.switch_cpus01.dtb.domain_faults              0                       # Number of TLB faults due to domain restrictions
system.switch_cpus01.dtb.perms_faults               0                       # Number of TLB faults due to permissions restrictions
system.switch_cpus01.dtb.read_accesses              0                       # DTB read accesses
system.switch_cpus01.dtb.write_accesses             0                       # DTB write accesses
system.switch_cpus01.dtb.inst_accesses              0                       # ITB inst accesses
system.switch_cpus01.dtb.hits                       0                       # DTB hits
system.switch_cpus01.dtb.misses                     0                       # DTB misses
system.switch_cpus01.dtb.accesses                   0                       # DTB accesses
[...]
system.cpu15.icache.demand_avg_miss_latency::total 175692.804348                       # average overall miss latency
system.cpu15.icache.overall_avg_miss_latency::switch_cpus15.inst 175692.804348                       # average overall miss latency
system.cpu15.icache.overall_avg_miss_latency::total 175692.804348                       # average overall miss latency
system.cpu15.icache.blocked_cycles::no_mshrs            0                       # number of cycles access was blocked
system.cpu15.icache.blocked_cycles::no_targets            0                       # number of cycles access was blocked
system.cpu15.icache.blocked::no_mshrs               0                       # number of cycles access was blocked
system.cpu15.icache.blocked::no_targets             0                       # number of cycles access was blocked
system.cpu15.icache.avg_blocked_cycles::no_mshrs          nan                       # average number of cycles each access was blocked
system.cpu15.icache.avg_blocked_cycles::no_targets          nan                       # average number of cycles each access was blocked
system.cpu15.icache.fast_writes                     0                       # number of fast writes performed
system.cpu15.icache.cache_copies                    0                       # number of cache copies performed
system.cpu15.icache.ReadReq_mshr_hits::switch_cpus15.inst           10                       # number of ReadReq MSHR hits
system.cpu15.icache.ReadReq_mshr_hits::total           10                       # number of ReadReq MSHR hits
system.cpu15.icache.demand_mshr_hits::switch_cpus15.inst           10                       # number of demand (read+write) MSHR hits
system.cpu15.icache.demand_mshr_hits::total           10                       # number of demand (read+write) MSHR hits
system.cpu15.icache.overall_mshr_hits::switch_cpus15.inst           10                       # number of overall MSHR hits
system.cpu15.icache.overall_mshr_hits::total           10                       # number of overall MSHR hits
system.cpu15.icache.ReadReq_mshr_misses::switch_cpus15.inst           36                       # number of ReadReq MSHR misses
system.cpu15.icache.ReadReq_mshr_misses::total           36                       # number of ReadReq MSHR misses
system.cpu15.icache.demand_mshr_misses::switch_cpus15.inst           36                       # number of demand (read+write) MSHR misses
system.cpu15.icache.demand_mshr_misses::total           36                       # number of demand (read+write) MSHR misses
system.cpu15.icache.overall_mshr_misses::switch_cpus15.inst           36                       # number of overall MSHR misses
system.cpu15.icache.overall_mshr_misses::total           36                       # number of overall MSHR misses
system.cpu15.icache.ReadReq_mshr_miss_latency::switch_cpus15.inst      6470956                       # number of ReadReq MSHR miss cycles
system.cpu15.icache.ReadReq_mshr_miss_latency::total      6470956                       # number of ReadReq MSHR miss cycles
system.cpu15.icache.demand_mshr_miss_latency::switch_cpus15.inst      6470956                       # number of demand (read+write) MSHR miss cycles
system.cpu15.icache.demand_mshr_miss_latency::total      6470956                       # number of demand (read+write) MSHR miss cycles
system.cpu15.icache.overall_mshr_miss_latency::switch_cpus15.inst      6470956                       # number of overall MSHR miss cycles
system.cpu15.icache.overall_mshr_miss_latency::total      6470956                       # number of overall MSHR miss cycles
system.cpu15.icache.ReadReq_mshr_miss_rate::switch_cpus15.inst     0.000003                       # mshr miss rate for ReadReq accesses
system.cpu15.icache.ReadReq_mshr_miss_rate::total     0.000003                       # mshr miss rate for ReadReq accesses
system.cpu15.icache.demand_mshr_miss_rate::switch_cpus15.inst     0.000003                       # mshr miss rate for demand accesses
system.cpu15.icache.demand_mshr_miss_rate::total     0.000003                       # mshr miss rate for demand accesses
system.cpu15.icache.overall_mshr_miss_rate::switch_cpus15.inst     0.000003                       # mshr miss rate for overall accesses
system.cpu15.icache.overall_mshr_miss_rate::total     0.000003                       # mshr miss rate for overall accesses
system.cpu15.icache.ReadReq_avg_mshr_miss_latency::switch_cpus15.inst 179748.777778                       # average ReadReq mshr miss latency
system.cpu15.icache.ReadReq_avg_mshr_miss_latency::total 179748.777778                       # average ReadReq mshr miss latency
system.cpu15.icache.demand_avg_mshr_miss_latency::switch_cpus15.inst 179748.777778                       # average overall mshr miss latency
system.cpu15.icache.demand_avg_mshr_miss_latency::total 179748.777778                       # average overall mshr miss latency
system.cpu15.icache.overall_avg_mshr_miss_latency::switch_cpus15.inst 179748.777778                       # average overall mshr miss latency
system.cpu15.icache.overall_avg_mshr_miss_latency::total 179748.777778                       # average overall mshr miss latency
system.cpu15.icache.no_allocate_misses              0                       # Number of misses that were no-allocate
system.cpu15.dcache.replacements                36907                       # number of replacements
system.cpu15.dcache.tagsinuse                     256                       # Cycle average of tags in use
system.cpu15.dcache.total_refs              164389863                       # Total number of references to valid blocks.
system.cpu15.dcache.sampled_refs                37163                       # Sample count of references to valid blocks.
system.cpu15.dcache.avg_refs              4423.482039                       # Average number of references to valid blocks.
system.cpu15.dcache.warmup_cycle                    0                       # Cycle when the warmup percentage was hit.
system.cpu15.dcache.occ_blocks::switch_cpus15.data   233.476010                       # Average occupied blocks per requestor
system.cpu15.dcache.occ_blocks::cpu15.data    22.523990                       # Average occupied blocks per requestor
system.cpu15.dcache.occ_percent::switch_cpus15.data     0.912016                       # Average percentage of cache occupancy
system.cpu15.dcache.occ_percent::cpu15.data     0.087984                       # Average percentage of cache occupancy
system.cpu15.dcache.occ_percent::total              1                       # Average percentage of cache occupancy
system.cpu15.dcache.ReadReq_hits::switch_cpus15.data      9935007                       # number of ReadReq hits
system.cpu15.dcache.ReadReq_hits::total       9935007                       # number of ReadReq hits
system.cpu15.dcache.WriteReq_hits::switch_cpus15.data      7380832                       # number of WriteReq hits
system.cpu15.dcache.WriteReq_hits::total      7380832                       # number of WriteReq hits
system.cpu15.dcache.LoadLockedReq_hits::switch_cpus15.data        19111                       # number of LoadLockedReq hits
system.cpu15.dcache.LoadLockedReq_hits::total        19111                       # number of LoadLockedReq hits
system.cpu15.dcache.StoreCondReq_hits::switch_cpus15.data        17955                       # number of StoreCondReq hits
system.cpu15.dcache.StoreCondReq_hits::total        17955                       # number of StoreCondReq hits
system.cpu15.dcache.demand_hits::switch_cpus15.data     17315839                       # number of demand (read+write) hits
system.cpu15.dcache.demand_hits::total       17315839                       # number of demand (read+write) hits
system.cpu15.dcache.overall_hits::switch_cpus15.data     17315839                       # number of overall hits
system.cpu15.dcache.overall_hits::total      17315839                       # number of overall hits
system.cpu15.dcache.ReadReq_misses::switch_cpus15.data        94818                       # number of ReadReq misses
system.cpu15.dcache.ReadReq_misses::total        94818                       # number of ReadReq misses
system.cpu15.dcache.WriteReq_misses::switch_cpus15.data         2213                       # number of WriteReq misses
system.cpu15.dcache.WriteReq_misses::total         2213                       # number of WriteReq misses
system.cpu15.dcache.demand_misses::switch_cpus15.data        97031                       # number of demand (read+write) misses
system.cpu15.dcache.demand_misses::total        97031                       # number of demand (read+write) misses
system.cpu15.dcache.overall_misses::switch_cpus15.data        97031                       # number of overall misses
system.cpu15.dcache.overall_misses::total        97031                       # number of overall misses
system.cpu15.dcache.ReadReq_miss_latency::switch_cpus15.data   9992838605                       # number of ReadReq miss cycles
system.cpu15.dcache.ReadReq_miss_latency::total   9992838605                       # number of ReadReq miss cycles
system.cpu15.dcache.WriteReq_miss_latency::switch_cpus15.data    145657646                       # number of WriteReq miss cycles
system.cpu15.dcache.WriteReq_miss_latency::total    145657646                       # number of WriteReq miss cycles
system.cpu15.dcache.demand_miss_latency::switch_cpus15.data  10138496251                       # number of demand (read+write) miss cycles
system.cpu15.dcache.demand_miss_latency::total  10138496251                       # number of demand (read+write) miss cycles
system.cpu15.dcache.overall_miss_latency::switch_cpus15.data  10138496251                       # number of overall miss cycles
system.cpu15.dcache.overall_miss_latency::total  10138496251                       # number of overall miss cycles
system.cpu15.dcache.ReadReq_accesses::switch_cpus15.data     10029825                       # number of ReadReq accesses(hits+misses)
system.cpu15.dcache.ReadReq_accesses::total     10029825                       # number of ReadReq accesses(hits+misses)
system.cpu15.dcache.WriteReq_accesses::switch_cpus15.data      7383045                       # number of WriteReq accesses(hits+misses)
system.cpu15.dcache.WriteReq_accesses::total      7383045                       # number of WriteReq accesses(hits+misses)
system.cpu15.dcache.LoadLockedReq_accesses::switch_cpus15.data        19111                       # number of LoadLockedReq accesses(hits+misses)
system.cpu15.dcache.LoadLockedReq_accesses::total        19111                       # number of LoadLockedReq accesses(hits+misses)
system.cpu15.dcache.StoreCondReq_accesses::switch_cpus15.data        17955                       # number of StoreCondReq accesses(hits+misses)
system.cpu15.dcache.StoreCondReq_accesses::total        17955                       # number of StoreCondReq accesses(hits+misses)
system.cpu15.dcache.demand_accesses::switch_cpus15.data     17412870                       # number of demand (read+write) accesses
system.cpu15.dcache.demand_accesses::total     17412870                       # number of demand (read+write) accesses
system.cpu15.dcache.overall_accesses::switch_cpus15.data     17412870                       # number of overall (read+write) accesses
system.cpu15.dcache.overall_accesses::total     17412870                       # number of overall (read+write) accesses
system.cpu15.dcache.ReadReq_miss_rate::switch_cpus15.data     0.009454                       # miss rate for ReadReq accesses
system.cpu15.dcache.ReadReq_miss_rate::total     0.009454                       # miss rate for ReadReq accesses
system.cpu15.dcache.WriteReq_miss_rate::switch_cpus15.data     0.000300                       # miss rate for WriteReq accesses
system.cpu15.dcache.WriteReq_miss_rate::total     0.000300                       # miss rate for WriteReq accesses
system.cpu15.dcache.demand_miss_rate::switch_cpus15.data     0.005572                       # miss rate for demand accesses
system.cpu15.dcache.demand_miss_rate::total     0.005572                       # miss rate for demand accesses
system.cpu15.dcache.overall_miss_rate::switch_cpus15.data     0.005572                       # miss rate for overall accesses
system.cpu15.dcache.overall_miss_rate::total     0.005572                       # miss rate for overall accesses
system.cpu15.dcache.ReadReq_avg_miss_latency::switch_cpus15.data 105389.679228                       # average ReadReq miss latency
system.cpu15.dcache.ReadReq_avg_miss_latency::total 105389.679228                       # average ReadReq miss latency
system.cpu15.dcache.WriteReq_avg_miss_latency::switch_cpus15.data 65819.089923                       # average WriteReq miss latency
system.cpu15.dcache.WriteReq_avg_miss_latency::total 65819.089923                       # average WriteReq miss latency
system.cpu15.dcache.demand_avg_miss_latency::switch_cpus15.data 104487.187095                       # average overall miss latency
system.cpu15.dcache.demand_avg_miss_latency::total 104487.187095                       # average overall miss latency
system.cpu15.dcache.overall_avg_miss_latency::switch_cpus15.data 104487.187095                       # average overall miss latency
system.cpu15.dcache.overall_avg_miss_latency::total 104487.187095                       # average overall miss latency
system.cpu15.dcache.blocked_cycles::no_mshrs            0                       # number of cycles access was blocked
system.cpu15.dcache.blocked_cycles::no_targets       149762                       # number of cycles access was blocked
system.cpu15.dcache.blocked::no_mshrs               0                       # number of cycles access was blocked
system.cpu15.dcache.blocked::no_targets             8                       # number of cycles access was blocked
system.cpu15.dcache.avg_blocked_cycles::no_mshrs          nan                       # average number of cycles each access was blocked
system.cpu15.dcache.avg_blocked_cycles::no_targets 18720.250000                       # average number of cycles each access was blocked
system.cpu15.dcache.fast_writes                     0                       # number of fast writes performed
system.cpu15.dcache.cache_copies                    0                       # number of cache copies performed
system.cpu15.dcache.writebacks::writebacks         8056                       # number of writebacks
system.cpu15.dcache.writebacks::total            8056                       # number of writebacks
system.cpu15.dcache.ReadReq_mshr_hits::switch_cpus15.data        58125                       # number of ReadReq MSHR hits
system.cpu15.dcache.ReadReq_mshr_hits::total        58125                       # number of ReadReq MSHR hits
system.cpu15.dcache.WriteReq_mshr_hits::switch_cpus15.data         1999                       # number of WriteReq MSHR hits
system.cpu15.dcache.WriteReq_mshr_hits::total         1999                       # number of WriteReq MSHR hits
system.cpu15.dcache.demand_mshr_hits::switch_cpus15.data        60124                       # number of demand (read+write) MSHR hits
system.cpu15.dcache.demand_mshr_hits::total        60124                       # number of demand (read+write) MSHR hits
system.cpu15.dcache.overall_mshr_hits::switch_cpus15.data        60124                       # number of overall MSHR hits
system.cpu15.dcache.overall_mshr_hits::total        60124                       # number of overall MSHR hits
system.cpu15.dcache.ReadReq_mshr_misses::switch_cpus15.data        36693                       # number of ReadReq MSHR misses
system.cpu15.dcache.ReadReq_mshr_misses::total        36693                       # number of ReadReq MSHR misses
system.cpu15.dcache.WriteReq_mshr_misses::switch_cpus15.data          214                       # number of WriteReq MSHR misses
system.cpu15.dcache.WriteReq_mshr_misses::total          214                       # number of WriteReq MSHR misses
system.cpu15.dcache.demand_mshr_misses::switch_cpus15.data        36907                       # number of demand (read+write) MSHR misses
system.cpu15.dcache.demand_mshr_misses::total        36907                       # number of demand (read+write) MSHR misses
system.cpu15.dcache.overall_mshr_misses::switch_cpus15.data        36907                       # number of overall MSHR misses
system.cpu15.dcache.overall_mshr_misses::total        36907                       # number of overall MSHR misses
system.cpu15.dcache.ReadReq_mshr_miss_latency::switch_cpus15.data   3556512022                       # number of ReadReq MSHR miss cycles
system.cpu15.dcache.ReadReq_mshr_miss_latency::total   3556512022                       # number of ReadReq MSHR miss cycles
system.cpu15.dcache.WriteReq_mshr_miss_latency::switch_cpus15.data     16356184                       # number of WriteReq MSHR miss cycles
system.cpu15.dcache.WriteReq_mshr_miss_latency::total     16356184                       # number of WriteReq MSHR miss cycles
system.cpu15.dcache.demand_mshr_miss_latency::switch_cpus15.data   3572868206                       # number of demand (read+write) MSHR miss cycles
system.cpu15.dcache.demand_mshr_miss_latency::total   3572868206                       # number of demand (read+write) MSHR miss cycles
system.cpu15.dcache.overall_mshr_miss_latency::switch_cpus15.data   3572868206                       # number of overall MSHR miss cycles
system.cpu15.dcache.overall_mshr_miss_latency::total   3572868206                       # number of overall MSHR miss cycles
system.cpu15.dcache.ReadReq_mshr_miss_rate::switch_cpus15.data     0.003658                       # mshr miss rate for ReadReq accesses
system.cpu15.dcache.ReadReq_mshr_miss_rate::total     0.003658                       # mshr miss rate for ReadReq accesses
system.cpu15.dcache.WriteReq_mshr_miss_rate::switch_cpus15.data     0.000029                       # mshr miss rate for WriteReq accesses
system.cpu15.dcache.WriteReq_mshr_miss_rate::total     0.000029                       # mshr miss rate for WriteReq accesses
system.cpu15.dcache.demand_mshr_miss_rate::switch_cpus15.data     0.002120                       # mshr miss rate for demand accesses
system.cpu15.dcache.demand_mshr_miss_rate::total     0.002120                       # mshr miss rate for demand accesses
system.cpu15.dcache.overall_mshr_miss_rate::switch_cpus15.data     0.002120                       # mshr miss rate for overall accesses
system.cpu15.dcache.overall_mshr_miss_rate::total     0.002120                       # mshr miss rate for overall accesses
system.cpu15.dcache.ReadReq_avg_mshr_miss_latency::switch_cpus15.data 96926.171804                       # average ReadReq mshr miss latency
system.cpu15.dcache.ReadReq_avg_mshr_miss_latency::total 96926.171804                       # average ReadReq mshr miss latency
system.cpu15.dcache.WriteReq_avg_mshr_miss_latency::switch_cpus15.data 76430.766355                       # average WriteReq mshr miss latency
system.cpu15.dcache.WriteReq_avg_mshr_miss_latency::total 76430.766355                       # average WriteReq mshr miss latency
system.cpu15.dcache.demand_avg_mshr_miss_latency::switch_cpus15.data 96807.332105                       # average overall mshr miss latency
system.cpu15.dcache.demand_avg_mshr_miss_latency::total 96807.332105                       # average overall mshr miss latency
system.cpu15.dcache.overall_avg_mshr_miss_latency::switch_cpus15.data 96807.332105                       # average overall mshr miss latency
system.cpu15.dcache.overall_avg_mshr_miss_latency::total 96807.332105                       # average overall mshr miss latency
system.cpu15.dcache.no_allocate_misses              0                       # Number of misses that were no-allocate

---------- End Simulation Statistics   ----------
