
---------- Begin Simulation Statistics ----------
final_tick                               2000000000000                       # Number of ticks from beginning of simulation (restored from checkpoints and never reset)
host_inst_rate                                 157771                       # Simulator instruction rate (inst/s)
host_mem_usage                              201490320                       # Number of bytes of host memory used
host_op_rate                                   185011                       # Simulator op (including micro ops) rate (op/s)
host_seconds                                 33375.13                       # Real time elapsed on the host
host_tick_rate                               30466024                       # Simulator tick rate (ticks/s)
sim_freq                                 1000000000000                       # Frequency of simulated ticks
sim_insts                                  5265637236                       # Number of instructions simulated
sim_ops                                    6174772382                       # Number of ops (including micro ops) simulated
sim_seconds                                  1.016807                       # Number of seconds simulated
sim_ticks                                1016807431352                       # Number of ticks simulated
system.cpu.committedInsts                           0                       # Number of instructions committed
system.cpu.committedOps                             0                       # Number of ops (including micro ops) committed
system.cpu.dtb.accesses                             0                       # DTB accesses
system.cpu.dtb.align_faults                         0                       # Number of TLB faults due to alignment restrictions
system.cpu.dtb.domain_faults                        0                       # Number of TLB faults due to domain restrictions
system.cpu.dtb.flush_entries                        0                       # Number of entries that have been flushed from TLB
system.cpu.dtb.flush_tlb                            0                       # Number of times complete TLB was flushed
system.cpu.dtb.flush_tlb_asid                       0                       # Number of times TLB was flushed by ASID
system.cpu.dtb.flush_tlb_mva                        0                       # Number of times TLB was flushed by MVA
system.cpu.dtb.flush_tlb_mva_asid                   0                       # Number of times TLB was flushed by MVA & ASID
system.cpu.dtb.hits                                 0                       # DTB hits
system.cpu.dtb.inst_accesses                        0                       # ITB inst accesses
system.cpu.dtb.inst_hits                            0                       # ITB inst hits
system.cpu.dtb.inst_misses                          0                       # ITB inst misses
system.cpu.dtb.misses                               0                       # DTB misses
system.cpu.dtb.perms_faults                         0                       # Number of TLB faults due to permissions restrictions
system.cpu.dtb.prefetch_faults                      0                       # Number of TLB faults due to prefetch
system.cpu.dtb.read_accesses                        0                       # DTB read accesses
system.cpu.dtb.read_hits                            0                       # DTB read hits
system.cpu.dtb.read_misses                          0                       # DTB read misses
system.cpu.dtb.stage2_mmu.stage2_tlb.accesses            0                       # DTB accesses
system.cpu.dtb.stage2_mmu.stage2_tlb.align_faults            0                       # Number of TLB faults due to alignment restrictions
system.cpu.dtb.stage2_mmu.stage2_tlb.domain_faults            0                       # Number of TLB faults due to domain restrictions
system.cpu.dtb.stage2_mmu.stage2_tlb.flush_entries            0                       # Number of entries that have been flushed from TLB
system.cpu.dtb.stage2_mmu.stage2_tlb.flush_tlb            0                       # Number of times complete TLB was flushed
system.cpu.dtb.stage2_mmu.stage2_tlb.flush_tlb_asid            0                       # Number of times TLB was flushed by ASID
system.cpu.dtb.stage2_mmu.stage2_tlb.flush_tlb_mva            0                       # Number of times TLB was flushed by MVA
system.cpu.dtb.stage2_mmu.stage2_tlb.flush_tlb_mva_asid            0                       # Number of times TLB was flushed by MVA & ASID
system.cpu.dtb.stage2_mmu.stage2_tlb.hits            0                       # DTB hits
system.cpu.dtb.stage2_mmu.stage2_tlb.inst_accesses            0                       # ITB inst accesses
system.cpu.dtb.stage2_mmu.stage2_tlb.inst_hits            0                       # ITB inst hits
system.cpu.dtb.stage2_mmu.stage2_tlb.inst_misses            0                       # ITB inst misses
system.cpu.dtb.stage2_mmu.stage2_tlb.misses            0                       # DTB misses
system.cpu.dtb.stage2_mmu.stage2_tlb.perms_faults            0                       # Number of TLB faults due to permissions restrictions
system.cpu.dtb.stage2_mmu.stage2_tlb.prefetch_faults            0                       # Number of TLB faults due to prefetch
system.cpu.dtb.stage2_mmu.stage2_tlb.read_accesses            0                       # DTB read accesses
system.cpu.dtb.stage2_mmu.stage2_tlb.read_hits            0                       # DTB read hits
system.cpu.dtb.stage2_mmu.stage2_tlb.read_misses            0                       # DTB read misses
system.cpu.dtb.stage2_mmu.stage2_tlb.walker.walkRequestOrigin_Requested::Data            0                       # Table walker requests started/completed, data/inst
system.cpu.dtb.stage2_mmu.stage2_tlb.walker.walkRequestOrigin_Requested::Inst            0                       # Table walker requests started/completed, data/inst
system.cpu.dtb.stage2_mmu.stage2_tlb.walker.walkRequestOrigin_Requested::total            0                       # Table walker requests started/completed, data/inst
system.cpu.dtb.stage2_mmu.stage2_tlb.walker.walkRequestOrigin_Completed::Data            0                       # Table walker requests started/completed, data/inst
system.cpu.dtb.stage2_mmu.stage2_tlb.walker.walkRequestOrigin_Completed::Inst            0                       # Table walker requests started/completed, data/inst
system.cpu.dtb.stage2_mmu.stage2_tlb.walker.walkRequestOrigin_Completed::total            0                       # Table walker requests started/completed, data/inst
system.cpu.dtb.stage2_mmu.stage2_tlb.walker.walkRequestOrigin::total            0                       # Table walker requests started/completed, data/inst
system.cpu.dtb.stage2_mmu.stage2_tlb.walker.walks            0                       # Table walker walks requested
system.cpu.dtb.stage2_mmu.stage2_tlb.write_accesses            0                       # DTB write accesses
system.cpu.dtb.stage2_mmu.stage2_tlb.write_hits            0                       # DTB write hits
system.cpu.dtb.stage2_mmu.stage2_tlb.write_misses            0                       # DTB write misses
system.cpu.dtb.walker.walkRequestOrigin_Requested::Data            0                       # Table walker requests started/completed, data/inst
system.cpu.dtb.walker.walkRequestOrigin_Requested::Inst            0                       # Table walker requests started/completed, data/inst
system.cpu.dtb.walker.walkRequestOrigin_Requested::total            0                       # Table walker requests started/completed, data/inst
system.cpu.dtb.walker.walkRequestOrigin_Completed::Data            0                       # Table walker requests started/completed, data/inst
system.cpu.dtb.walker.walkRequestOrigin_Completed::Inst            0                       # Table walker requests started/completed, data/inst
system.cpu.dtb.walker.walkRequestOrigin_Completed::total            0                       # Table walker requests started/completed, data/inst
system.cpu.dtb.walker.walkRequestOrigin::total            0                       # Table walker requests started/completed, data/inst
system.cpu.dtb.walker.walks                         0                       # Table walker walks requested
system.cpu.dtb.write_accesses                       0                       # DTB write accesses
system.cpu.dtb.write_hits                           0                       # DTB write hits
system.cpu.dtb.write_misses                         0                       # DTB write misses
system.cpu.idle_fraction                            0                       # Percentage of idle cycles
system.cpu.itb.accesses                             0                       # DTB accesses
system.cpu.itb.align_faults                         0                       # Number of TLB faults due to alignment restrictions
system.cpu.itb.domain_faults                        0                       # Number of TLB faults due to domain restrictions
system.cpu.itb.flush_entries                        0                       # Number of entries that have been flushed from TLB
system.cpu.itb.flush_tlb                            0                       # Number of times complete TLB was flushed
system.cpu.itb.flush_tlb_asid                       0                       # Number of times TLB was flushed by ASID
system.cpu.itb.flush_tlb_mva                        0                       # Number of times TLB was flushed by MVA
system.cpu.itb.flush_tlb_mva_asid                   0                       # Number of times TLB was flushed by MVA & ASID
system.cpu.itb.hits                                 0                       # DTB hits
system.cpu.itb.inst_accesses                        0                       # ITB inst accesses
system.cpu.itb.inst_hits                            0                       # ITB inst hits
system.cpu.itb.inst_misses                          0                       # ITB inst misses
system.cpu.itb.misses                               0                       # DTB misses
system.cpu.itb.perms_faults                         0                       # Number of TLB faults due to permissions restrictions
system.cpu.itb.prefetch_faults                      0                       # Number of TLB faults due to prefetch
system.cpu.itb.read_accesses                        0                       # DTB read accesses
system.cpu.itb.read_hits                            0                       # DTB read hits
system.cpu.itb.read_misses                          0                       # DTB read misses
system.cpu.itb.stage2_mmu.stage2_tlb.accesses            0                       # DTB accesses
system.cpu.itb.stage2_mmu.stage2_tlb.align_faults            0                       # Number of TLB faults due to alignment restrictions
system.cpu.itb.stage2_mmu.stage2_tlb.domain_faults            0                       # Number of TLB faults due to domain restrictions
system.cpu.itb.stage2_mmu.stage2_tlb.flush_entries            0                       # Number of entries that have been flushed from TLB
system.cpu.itb.stage2_mmu.stage2_tlb.flush_tlb            0                       # Number of times complete TLB was flushed
system.cpu.itb.stage2_mmu.stage2_tlb.flush_tlb_asid            0                       # Number of times TLB was flushed by ASID
system.cpu.itb.stage2_mmu.stage2_tlb.flush_tlb_mva            0                       # Number of times TLB was flushed by MVA
system.cpu.itb.stage2_mmu.stage2_tlb.flush_tlb_mva_asid            0                       # Number of times TLB was flushed by MVA & ASID
system.cpu.itb.stage2_mmu.stage2_tlb.hits            0                       # DTB hits
system.cpu.itb.stage2_mmu.stage2_tlb.inst_accesses            0                       # ITB inst accesses
system.cpu.itb.stage2_mmu.stage2_tlb.inst_hits            0                       # ITB inst hits
system.cpu.itb.stage2_mmu.stage2_tlb.inst_misses            0                       # ITB inst misses
system.cpu.itb.stage2_mmu.stage2_tlb.misses            0                       # DTB misses
system.cpu.itb.stage2_mmu.stage2_tlb.perms_faults            0                       # Number of TLB faults due to permissions restrictions
system.cpu.itb.stage2_mmu.stage2_tlb.prefetch_faults            0                       # Number of TLB faults due to prefetch
system.cpu.itb.stage2_mmu.stage2_tlb.read_accesses            0                       # DTB read accesses
system.cpu.itb.stage2_mmu.stage2_tlb.read_hits            0                       # DTB read hits
system.cpu.itb.stage2_mmu.stage2_tlb.read_misses            0                       # DTB read misses
system.cpu.itb.stage2_mmu.stage2_tlb.walker.walkRequestOrigin_Requested::Data            0                       # Table walker requests started/completed, data/inst
system.cpu.itb.stage2_mmu.stage2_tlb.walker.walkRequestOrigin_Requested::Inst            0                       # Table walker requests started/completed, data/inst
system.cpu.itb.stage2_mmu.stage2_tlb.walker.walkRequestOrigin_Requested::total            0                       # Table walker requests started/completed, data/inst
system.cpu.itb.stage2_mmu.stage2_tlb.walker.walkRequestOrigin_Completed::Data            0                       # Table walker requests started/completed, data/inst
system.cpu.itb.stage2_mmu.stage2_tlb.walker.walkRequestOrigin_Completed::Inst            0                       # Table walker requests started/completed, data/inst
system.cpu.itb.stage2_mmu.stage2_tlb.walker.walkRequestOrigin_Completed::total            0                       # Table walker requests started/completed, data/inst
system.cpu.itb.stage2_mmu.stage2_tlb.walker.walkRequestOrigin::total            0                       # Table walker requests started/completed, data/inst
system.cpu.itb.stage2_mmu.stage2_tlb.walker.walks            0                       # Table walker walks requested
system.cpu.itb.stage2_mmu.stage2_tlb.write_accesses            0                       # DTB write accesses
system.cpu.itb.stage2_mmu.stage2_tlb.write_hits            0                       # DTB write hits
system.cpu.itb.stage2_mmu.stage2_tlb.write_misses            0                       # DTB write misses
system.cpu.itb.walker.walkRequestOrigin_Requested::Data            0                       # Table walker requests started/completed, data/inst
system.cpu.itb.walker.walkRequestOrigin_Requested::Inst            0                       # Table walker requests started/completed, data/inst
system.cpu.itb.walker.walkRequestOrigin_Requested::total            0                       # Table walker requests started/completed, data/inst
system.cpu.itb.walker.walkRequestOrigin_Completed::Data            0                       # Table walker requests started/completed, data/inst
system.cpu.itb.walker.walkRequestOrigin_Completed::Inst            0                       # Table walker requests started/completed, data/inst
system.cpu.itb.walker.walkRequestOrigin_Completed::total            0                       # Table walker requests started/completed, data/inst
system.cpu.itb.walker.walkRequestOrigin::total            0                       # Table walker requests started/completed, data/inst
system.cpu.itb.walker.walks                         0                       # Table walker walks requested
system.cpu.itb.write_accesses                       0                       # DTB write accesses
system.cpu.itb.write_hits                           0                       # DTB write hits
system.cpu.itb.write_misses                         0                       # DTB write misses
system.cpu.not_idle_fraction                        1                       # Percentage of non-idle cycles
system.cpu.numCycles                                0                       # number of cpu cycles simulated
system.cpu.numWorkItemsCompleted                    0                       # number of work items this cpu completed
system.cpu.numWorkItemsStarted                      0                       # number of work items this cpu started
system.cpu.num_busy_cycles                          0                       # Number of busy cycles
system.cpu.num_conditional_control_insts            0                       # number of instructions that are conditional controls
system.cpu.num_fp_alu_accesses                      0                       # Number of float alu accesses
system.cpu.num_fp_insts                             0                       # number of float instructions
system.cpu.num_fp_register_reads                    0                       # number of times the floating registers were read
system.cpu.num_fp_register_writes                   0                       # number of times the floating registers were written
system.cpu.num_func_calls                           0                       # number of times a function call or return occured
system.cpu.num_idle_cycles                          0                       # Number of idle cycles
system.cpu.num_int_alu_accesses                     0                       # Number of integer alu accesses
system.cpu.num_int_insts                            0                       # number of integer instructions
system.cpu.num_int_register_reads                   0                       # number of times the integer registers were read
system.cpu.num_int_register_writes                  0                       # number of times the integer registers were written
system.cpu.num_load_insts                           0                       # Number of load instructions
system.cpu.num_mem_refs                             0                       # number of memory refs
system.cpu.num_store_insts                          0                       # Number of store instructions
system.cpu.num_vec_alu_accesses                     0                       # Number of vector alu accesses
system.cpu.num_vec_insts                            0                       # number of vector instructions
system.cpu.num_vec_register_reads                   0                       # number of times the vector registers were read
system.cpu.num_vec_register_writes                  0                       # number of times the vector registers were written
system.cpu.op_class::No_OpClass                     0                       # Class of executed instruction
system.cpu.op_class::IntAlu                         0                       # Class of executed instruction
system.cpu.op_class::IntMult                        0                       # Class of executed instruction
system.cpu.op_class::IntDiv                         0                       # Class of executed instruction
system.cpu.op_class::FloatAdd                       0                       # Class of executed instruction
system.cpu.op_class::FloatCmp                       0                       # Class of executed instruction
system.cpu.op_class::FloatCvt                       0                       # Class of executed instruction
system.cpu.op_class::FloatMult                      0                       # Class of executed instruction
system.cpu.op_class::FloatMultAcc                   0                       # Class of executed instruction
system.cpu.op_class::FloatDiv                       0                       # Class of executed instruction
system.cpu.op_class::FloatMisc                      0                       # Class of executed instruction
system.cpu.op_class::FloatSqrt                      0                       # Class of executed instruction
system.cpu.op_class::SimdAdd                        0                       # Class of executed instruction
system.cpu.op_class::SimdAddAcc                     0                       # Class of executed instruction
system.cpu.op_class::SimdAlu                        0                       # Class of executed instruction
system.cpu.op_class::SimdCmp                        0                       # Class of executed instruction
system.cpu.op_class::SimdCvt                        0                       # Class of executed instruction
system.cpu.op_class::SimdMisc                       0                       # Class of executed instruction
system.cpu.op_class::SimdMult                       0                       # Class of executed instruction
system.cpu.op_class::SimdMultAcc                    0                       # Class of executed instruction
system.cpu.op_class::SimdShift                      0                       # Class of executed instruction
system.cpu.op_class::SimdShiftAcc                   0                       # Class of executed instruction
system.cpu.op_class::SimdDiv                        0                       # Class of executed instruction
system.cpu.op_class::SimdSqrt                       0                       # Class of executed instruction
system.cpu.op_class::SimdFloatAdd                   0                       # Class of executed instruction
system.cpu.op_class::SimdFloatAlu                   0                       # Class of executed instruction
system.cpu.op_class::SimdFloatCmp                   0                       # Class of executed instruction
system.cpu.op_class::SimdFloatCvt                   0                       # Class of executed instruction
system.cpu.op_class::SimdFloatDiv                   0                       # Class of executed instruction
system.cpu.op_class::SimdFloatMisc                  0                       # Class of executed instruction
system.cpu.op_class::SimdFloatMult                  0                       # Class of executed instruction
system.cpu.op_class::SimdFloatMultAcc               0                       # Class of executed instruction
system.cpu.op_class::SimdFloatSqrt                  0                       # Class of executed instruction
system.cpu.op_class::SimdReduceAdd                  0                       # Class of executed instruction
system.cpu.op_class::SimdReduceAlu                  0                       # Class of executed instruction
system.cpu.op_class::SimdReduceCmp                  0                       # Class of executed instruction
system.cpu.op_class::SimdFloatReduceAdd             0                       # Class of executed instruction
system.cpu.op_class::SimdFloatReduceCmp             0                       # Class of executed instruction
system.cpu.op_class::SimdAes                        0                       # Class of executed instruction
system.cpu.op_class::SimdAesMix                     0                       # Class of executed instruction
system.cpu.op_class::SimdSha1Hash                   0                       # Class of executed instruction
system.cpu.op_class::SimdSha1Hash2                  0                       # Class of executed instruction
system.cpu.op_class::SimdSha256Hash                 0                       # Class of executed instruction
system.cpu.op_class::SimdSha256Hash2                0                       # Class of executed instruction
system.cpu.op_class::SimdShaSigma2                  0                       # Class of executed instruction
system.cpu.op_class::SimdShaSigma3                  0                       # Class of executed instruction
system.cpu.op_class::SimdPredAlu                    0                       # Class of executed instruction
system.cpu.op_class::MemRead                        0                       # Class of executed instruction
system.cpu.op_class::MemWrite                       0                       # Class of executed instruction
system.cpu.op_class::FloatMemRead                   0                       # Class of executed instruction
system.cpu.op_class::FloatMemWrite                  0                       # Class of executed instruction
system.cpu.op_class::IprAccess                      0                       # Class of executed instruction
system.cpu.op_class::InstPrefetch                   0                       # Class of executed instruction
system.cpu.op_class::total                          0                       # Class of executed instruction
system.cpu.workload.numSyscalls                    99                       # Number of system calls
system.membus.snoop_filter.hit_multi_requests            0                       # Number of requests hitting in the snoop filter with multiple (>1) holders of the requested data.
system.membus.snoop_filter.hit_multi_snoops            0                       # Number of snoops hitting in the snoop filter with multiple (>1) holders of the requested data.
system.membus.snoop_filter.hit_single_requests      3099293                       # Number of requests hitting in the snoop filter with a single holder of the requested data.
system.membus.snoop_filter.hit_single_snoops            0                       # Number of snoops hitting in the snoop filter with a single holder of the requested data.
system.membus.snoop_filter.tot_requests       6197529                       # Total number of requests made to the snoop filter.
system.membus.snoop_filter.tot_snoops               0                       # Total number of snoops made to the snoop filter.
system.switch_cpus.branchPred.BTBCorrect            0                       # Number of correct BTB predictions (this stat may not work properly.
system.switch_cpus.branchPred.BTBHitPct     95.773077                       # BTB Hit Percentage
system.switch_cpus.branchPred.BTBHits       314415869                       # Number of BTB hits
system.switch_cpus.branchPred.BTBLookups    328292543                       # Number of BTB lookups
system.switch_cpus.branchPred.RASInCorrect            1                       # Number of incorrect RAS predictions.
system.switch_cpus.branchPred.condIncorrect      1588187                       # Number of conditional branches incorrect
system.switch_cpus.branchPred.condPredicted    481872765                       # Number of conditional branches predicted
system.switch_cpus.branchPred.indirectHits     11053856                       # Number of indirect target hits.
system.switch_cpus.branchPred.indirectLookups     11331958                       # Number of indirect predictor lookups.
system.switch_cpus.branchPred.indirectMisses       278102                       # Number of indirect misses.
system.switch_cpus.branchPred.lookups       658028639                       # Number of BP lookups
system.switch_cpus.branchPred.usedRAS        72685190                       # Number of times the RAS was used to get a target.
system.switch_cpus.branchPredindirectMispredicted          131                       # Number of mispredicted indirect branches.
system.switch_cpus.cc_regfile_reads        1207787019                       # number of cc regfile reads
system.switch_cpus.cc_regfile_writes       1191553848                       # number of cc regfile writes
system.switch_cpus.commit.amos                      0                       # Number of atomic instructions committed
system.switch_cpus.commit.branchMispredicts      1587048                       # The number of times a branch was mispredicted
system.switch_cpus.commit.branches          644885358                       # Number of branches committed
system.switch_cpus.commit.bw_lim_events     240168836                       # number cycles where commit BW limit reached
system.switch_cpus.commit.commitNonSpecStalls     14559892                       # The number of times commit has been forced to stall to communicate backwards
system.switch_cpus.commit.commitSquashedInsts     78634420                       # The number of squashed insts skipped by commit
system.switch_cpus.commit.committedInsts   3265637235                       # Number of instructions committed
system.switch_cpus.commit.committedOps     3817286657                       # Number of ops (including micro ops) committed
system.switch_cpus.commit.committed_per_cycle::samples   2428059814                       # Number of insts commited each cycle
system.switch_cpus.commit.committed_per_cycle::mean     1.572155                       # Number of insts commited each cycle
system.switch_cpus.commit.committed_per_cycle::stdev     2.581899                       # Number of insts commited each cycle
system.switch_cpus.commit.committed_per_cycle::underflows            0      0.00%      0.00% # Number of insts commited each cycle
system.switch_cpus.commit.committed_per_cycle::0   1465587378     60.36%     60.36% # Number of insts commited each cycle
system.switch_cpus.commit.committed_per_cycle::1    205981656      8.48%     68.84% # Number of insts commited each cycle
system.switch_cpus.commit.committed_per_cycle::2    241216981      9.93%     78.78% # Number of insts commited each cycle
system.switch_cpus.commit.committed_per_cycle::3     46839581      1.93%     80.71% # Number of insts commited each cycle
system.switch_cpus.commit.committed_per_cycle::4    144029778      5.93%     86.64% # Number of insts commited each cycle
system.switch_cpus.commit.committed_per_cycle::5     38021473      1.57%     88.21% # Number of insts commited each cycle
system.switch_cpus.commit.committed_per_cycle::6     22723786      0.94%     89.14% # Number of insts commited each cycle
system.switch_cpus.commit.committed_per_cycle::7     23490345      0.97%     90.11% # Number of insts commited each cycle
system.switch_cpus.commit.committed_per_cycle::8    240168836      9.89%    100.00% # Number of insts commited each cycle
system.switch_cpus.commit.committed_per_cycle::overflows            0      0.00%    100.00% # Number of insts commited each cycle
system.switch_cpus.commit.committed_per_cycle::min_value            0                       # Number of insts commited each cycle
system.switch_cpus.commit.committed_per_cycle::max_value            8                       # Number of insts commited each cycle
system.switch_cpus.commit.committed_per_cycle::total   2428059814                       # Number of insts commited each cycle
system.switch_cpus.commit.fp_insts                  0                       # Number of committed floating point instructions.
system.switch_cpus.commit.function_calls     71243833                       # Number of function calls committed.
system.switch_cpus.commit.int_insts        3277684143                       # Number of committed integer instructions.
system.switch_cpus.commit.loads             680559775                       # Number of loads committed
system.switch_cpus.commit.membars            16177381                       # Number of memory barriers committed
system.switch_cpus.commit.op_class_0::No_OpClass            0      0.00%      0.00% # Class of committed instruction
system.switch_cpus.commit.op_class_0::IntAlu   2363644001     61.92%     61.92% # Class of committed instruction
system.switch_cpus.commit.op_class_0::IntMult    192871227      5.05%     66.97% # Class of committed instruction
system.switch_cpus.commit.op_class_0::IntDiv            0      0.00%     66.97% # Class of committed instruction
system.switch_cpus.commit.op_class_0::FloatAdd     26895864      0.70%     67.68% # Class of committed instruction
system.switch_cpus.commit.op_class_0::FloatCmp     17795260      0.47%     68.14% # Class of committed instruction
system.switch_cpus.commit.op_class_0::FloatCvt      7321830      0.19%     68.33% # Class of committed instruction
system.switch_cpus.commit.op_class_0::FloatMult     24266089      0.64%     68.97% # Class of committed instruction
system.switch_cpus.commit.op_class_0::FloatMultAcc     29199837      0.76%     69.74% # Class of committed instruction
system.switch_cpus.commit.op_class_0::FloatDiv      4084986      0.11%     69.84% # Class of committed instruction
system.switch_cpus.commit.op_class_0::FloatMisc     25328451      0.66%     70.51% # Class of committed instruction
system.switch_cpus.commit.op_class_0::FloatSqrt            0      0.00%     70.51% # Class of committed instruction
system.switch_cpus.commit.op_class_0::SimdAdd            0      0.00%     70.51% # Class of committed instruction
system.switch_cpus.commit.op_class_0::SimdAddAcc            0      0.00%     70.51% # Class of committed instruction
system.switch_cpus.commit.op_class_0::SimdAlu      1617687      0.04%     70.55% # Class of committed instruction
system.switch_cpus.commit.op_class_0::SimdCmp            0      0.00%     70.55% # Class of committed instruction
system.switch_cpus.commit.op_class_0::SimdCvt            0      0.00%     70.55% # Class of committed instruction
system.switch_cpus.commit.op_class_0::SimdMisc            0      0.00%     70.55% # Class of committed instruction
system.switch_cpus.commit.op_class_0::SimdMult            0      0.00%     70.55% # Class of committed instruction
system.switch_cpus.commit.op_class_0::SimdMultAcc            0      0.00%     70.55% # Class of committed instruction
system.switch_cpus.commit.op_class_0::SimdShift            0      0.00%     70.55% # Class of committed instruction
system.switch_cpus.commit.op_class_0::SimdShiftAcc            0      0.00%     70.55% # Class of committed instruction
system.switch_cpus.commit.op_class_0::SimdDiv            0      0.00%     70.55% # Class of committed instruction
system.switch_cpus.commit.op_class_0::SimdSqrt            0      0.00%     70.55% # Class of committed instruction
system.switch_cpus.commit.op_class_0::SimdFloatAdd            0      0.00%     70.55% # Class of committed instruction
system.switch_cpus.commit.op_class_0::SimdFloatAlu            0      0.00%     70.55% # Class of committed instruction
system.switch_cpus.commit.op_class_0::SimdFloatCmp            0      0.00%     70.55% # Class of committed instruction
system.switch_cpus.commit.op_class_0::SimdFloatCvt            0      0.00%     70.55% # Class of committed instruction
system.switch_cpus.commit.op_class_0::SimdFloatDiv            0      0.00%     70.55% # Class of committed instruction
system.switch_cpus.commit.op_class_0::SimdFloatMisc            0      0.00%     70.55% # Class of committed instruction
system.switch_cpus.commit.op_class_0::SimdFloatMult            0      0.00%     70.55% # Class of committed instruction
system.switch_cpus.commit.op_class_0::SimdFloatMultAcc            0      0.00%     70.55% # Class of committed instruction
system.switch_cpus.commit.op_class_0::SimdFloatSqrt            0      0.00%     70.55% # Class of committed instruction
system.switch_cpus.commit.op_class_0::SimdReduceAdd            0      0.00%     70.55% # Class of committed instruction
system.switch_cpus.commit.op_class_0::SimdReduceAlu            0      0.00%     70.55% # Class of committed instruction
system.switch_cpus.commit.op_class_0::SimdReduceCmp            0      0.00%     70.55% # Class of committed instruction
system.switch_cpus.commit.op_class_0::SimdFloatReduceAdd            0      0.00%     70.55% # Class of committed instruction
system.switch_cpus.commit.op_class_0::SimdFloatReduceCmp            0      0.00%     70.55% # Class of committed instruction
system.switch_cpus.commit.op_class_0::SimdAes            0      0.00%     70.55% # Class of committed instruction
system.switch_cpus.commit.op_class_0::SimdAesMix            0      0.00%     70.55% # Class of committed instruction
system.switch_cpus.commit.op_class_0::SimdSha1Hash            0      0.00%     70.55% # Class of committed instruction
system.switch_cpus.commit.op_class_0::SimdSha1Hash2            0      0.00%     70.55% # Class of committed instruction
system.switch_cpus.commit.op_class_0::SimdSha256Hash            0      0.00%     70.55% # Class of committed instruction
system.switch_cpus.commit.op_class_0::SimdSha256Hash2            0      0.00%     70.55% # Class of committed instruction
system.switch_cpus.commit.op_class_0::SimdShaSigma2            0      0.00%     70.55% # Class of committed instruction
system.switch_cpus.commit.op_class_0::SimdShaSigma3            0      0.00%     70.55% # Class of committed instruction
system.switch_cpus.commit.op_class_0::SimdPredAlu            0      0.00%     70.55% # Class of committed instruction
system.switch_cpus.commit.op_class_0::MemRead    680559775     17.83%     88.38% # Class of committed instruction
system.switch_cpus.commit.op_class_0::MemWrite    443701650     11.62%    100.00% # Class of committed instruction
system.switch_cpus.commit.op_class_0::FloatMemRead            0      0.00%    100.00% # Class of committed instruction
system.switch_cpus.commit.op_class_0::FloatMemWrite            0      0.00%    100.00% # Class of committed instruction
system.switch_cpus.commit.op_class_0::IprAccess            0      0.00%    100.00% # Class of committed instruction
system.switch_cpus.commit.op_class_0::InstPrefetch            0      0.00%    100.00% # Class of committed instruction
system.switch_cpus.commit.op_class_0::total   3817286657                       # Class of committed instruction
system.switch_cpus.commit.refs             1124261425                       # Number of memory references committed
system.switch_cpus.commit.swp_count                 0                       # Number of s/w prefetches committed
system.switch_cpus.commit.vec_insts         224734184                       # Number of committed Vector instructions.
system.switch_cpus.committedInsts          3265637235                       # Number of Instructions Simulated
system.switch_cpus.committedOps            3817286657                       # Number of Ops (including micro ops) Simulated
system.switch_cpus.cpi                       0.746680                       # CPI: Cycles Per Instruction
system.switch_cpus.cpi_total                 0.746680                       # CPI: Total CPI of All Threads
system.switch_cpus.decode.BlockedCycles    1593426079                       # Number of cycles decode is blocked
system.switch_cpus.decode.BranchMispred          1165                       # Number of times decode detected a branch misprediction
system.switch_cpus.decode.BranchResolved    313763580                       # Number of times decode resolved a branch
system.switch_cpus.decode.DecodedInsts     3911982760                       # Number of instructions handled by decode
system.switch_cpus.decode.IdleCycles        217810786                       # Number of cycles decode is idle
system.switch_cpus.decode.RunCycles         506026880                       # Number of cycles decode is running
system.switch_cpus.decode.SquashCycles        1637298                       # Number of cycles decode is squashing
system.switch_cpus.decode.SquashedInsts          4555                       # Number of squashed instructions handled by decode
system.switch_cpus.decode.UnblockCycles     119484038                       # Number of cycles decode is unblocking
system.switch_cpus.dtb.accesses                     0                       # DTB accesses
system.switch_cpus.dtb.align_faults                 0                       # Number of TLB faults due to alignment restrictions
system.switch_cpus.dtb.domain_faults                0                       # Number of TLB faults due to domain restrictions
system.switch_cpus.dtb.flush_entries                0                       # Number of entries that have been flushed from TLB
system.switch_cpus.dtb.flush_tlb                    0                       # Number of times complete TLB was flushed
system.switch_cpus.dtb.flush_tlb_asid               0                       # Number of times TLB was flushed by ASID
system.switch_cpus.dtb.flush_tlb_mva                0                       # Number of times TLB was flushed by MVA
system.switch_cpus.dtb.flush_tlb_mva_asid            0                       # Number of times TLB was flushed by MVA & ASID
system.switch_cpus.dtb.hits                         0                       # DTB hits
system.switch_cpus.dtb.inst_accesses                0                       # ITB inst accesses
system.switch_cpus.dtb.inst_hits                    0                       # ITB inst hits
system.switch_cpus.dtb.inst_misses                  0                       # ITB inst misses
system.switch_cpus.dtb.misses                       0                       # DTB misses
system.switch_cpus.dtb.perms_faults                 0                       # Number of TLB faults due to permissions restrictions
system.switch_cpus.dtb.prefetch_faults              0                       # Number of TLB faults due to prefetch
system.switch_cpus.dtb.read_accesses                0                       # DTB read accesses
system.switch_cpus.dtb.read_hits                    0                       # DTB read hits
system.switch_cpus.dtb.read_misses                  0                       # DTB read misses
system.switch_cpus.dtb.stage2_mmu.stage2_tlb.accesses            0                       # DTB accesses
system.switch_cpus.dtb.stage2_mmu.stage2_tlb.align_faults            0                       # Number of TLB faults due to alignment restrictions
system.switch_cpus.dtb.stage2_mmu.stage2_tlb.domain_faults            0                       # Number of TLB faults due to domain restrictions
system.switch_cpus.dtb.stage2_mmu.stage2_tlb.flush_entries            0                       # Number of entries that have been flushed from TLB
system.switch_cpus.dtb.stage2_mmu.stage2_tlb.flush_tlb            0                       # Number of times complete TLB was flushed
system.switch_cpus.dtb.stage2_mmu.stage2_tlb.flush_tlb_asid            0                       # Number of times TLB was flushed by ASID
system.switch_cpus.dtb.stage2_mmu.stage2_tlb.flush_tlb_mva            0                       # Number of times TLB was flushed by MVA
system.switch_cpus.dtb.stage2_mmu.stage2_tlb.flush_tlb_mva_asid            0                       # Number of times TLB was flushed by MVA & ASID
system.switch_cpus.dtb.stage2_mmu.stage2_tlb.hits            0                       # DTB hits
system.switch_cpus.dtb.stage2_mmu.stage2_tlb.inst_accesses            0                       # ITB inst accesses
system.switch_cpus.dtb.stage2_mmu.stage2_tlb.inst_hits            0                       # ITB inst hits
system.switch_cpus.dtb.stage2_mmu.stage2_tlb.inst_misses            0                       # ITB inst misses
system.switch_cpus.dtb.stage2_mmu.stage2_tlb.misses            0                       # DTB misses
system.switch_cpus.dtb.stage2_mmu.stage2_tlb.perms_faults            0                       # Number of TLB faults due to permissions restrictions
system.switch_cpus.dtb.stage2_mmu.stage2_tlb.prefetch_faults            0                       # Number of TLB faults due to prefetch
system.switch_cpus.dtb.stage2_mmu.stage2_tlb.read_accesses            0                       # DTB read accesses
system.switch_cpus.dtb.stage2_mmu.stage2_tlb.read_hits            0                       # DTB read hits
system.switch_cpus.dtb.stage2_mmu.stage2_tlb.read_misses            0                       # DTB read misses
system.switch_cpus.dtb.stage2_mmu.stage2_tlb.walker.walkRequestOrigin_Requested::Data            0                       # Table walker requests started/completed, data/inst
system.switch_cpus.dtb.stage2_mmu.stage2_tlb.walker.walkRequestOrigin_Requested::Inst            0                       # Table walker requests started/completed, data/inst
system.switch_cpus.dtb.stage2_mmu.stage2_tlb.walker.walkRequestOrigin_Requested::total            0                       # Table walker requests started/completed, data/inst
system.switch_cpus.dtb.stage2_mmu.stage2_tlb.walker.walkRequestOrigin_Completed::Data            0                       # Table walker requests started/completed, data/inst
system.switch_cpus.dtb.stage2_mmu.stage2_tlb.walker.walkRequestOrigin_Completed::Inst            0                       # Table walker requests started/completed, data/inst
system.switch_cpus.dtb.stage2_mmu.stage2_tlb.walker.walkRequestOrigin_Completed::total            0                       # Table walker requests started/completed, data/inst
system.switch_cpus.dtb.stage2_mmu.stage2_tlb.walker.walkRequestOrigin::total            0                       # Table walker requests started/completed, data/inst
system.switch_cpus.dtb.stage2_mmu.stage2_tlb.walker.walks            0                       # Table walker walks requested
system.switch_cpus.dtb.stage2_mmu.stage2_tlb.write_accesses            0                       # DTB write accesses
system.switch_cpus.dtb.stage2_mmu.stage2_tlb.write_hits            0                       # DTB write hits
system.switch_cpus.dtb.stage2_mmu.stage2_tlb.write_misses            0                       # DTB write misses
system.switch_cpus.dtb.walker.walkRequestOrigin_Requested::Data            0                       # Table walker requests started/completed, data/inst
system.switch_cpus.dtb.walker.walkRequestOrigin_Requested::Inst            0                       # Table walker requests started/completed, data/inst
system.switch_cpus.dtb.walker.walkRequestOrigin_Requested::total            0                       # Table walker requests started/completed, data/inst
system.switch_cpus.dtb.walker.walkRequestOrigin_Completed::Data            0                       # Table walker requests started/completed, data/inst
system.switch_cpus.dtb.walker.walkRequestOrigin_Completed::Inst            0                       # Table walker requests started/completed, data/inst
system.switch_cpus.dtb.walker.walkRequestOrigin_Completed::total            0                       # Table walker requests started/completed, data/inst
system.switch_cpus.dtb.walker.walkRequestOrigin::total            0                       # Table walker requests started/completed, data/inst
system.switch_cpus.dtb.walker.walks                 0                       # Table walker walks requested
system.switch_cpus.dtb.write_accesses               0                       # DTB write accesses
system.switch_cpus.dtb.write_hits                   0                       # DTB write hits
system.switch_cpus.dtb.write_misses                 0                       # DTB write misses
system.switch_cpus.fetch.Branches           658028639                       # Number of branches that fetch encountered
system.switch_cpus.fetch.CacheLines         390865814                       # Number of cache lines fetched
system.switch_cpus.fetch.Cycles            2044638310                       # Number of cycles fetch has run and was not squashing or blocked
system.switch_cpus.fetch.IcacheSquashes        328893                       # Number of outstanding Icache misses that were squashed
system.switch_cpus.fetch.IcacheWaitRetryStallCycles           50                       # Number of stall cycles due to full MSHR
system.switch_cpus.fetch.Insts             3371147870                       # Number of instructions fetch has processed
system.switch_cpus.fetch.MiscStallCycles           75                       # Number of cycles fetch has spent waiting on interrupts, or bad addresses, or out of MSHRs
system.switch_cpus.fetch.SquashCycles         3276874                       # Number of cycles fetch has spent squashing
system.switch_cpus.fetch.branchRate          0.269862                       # Number of branch fetches per cycle
system.switch_cpus.fetch.icacheStallCycles    392108218                       # Number of cycles fetch is stalled on an Icache miss
system.switch_cpus.fetch.predictedBranches    398154915                       # Number of branches that fetch has predicted taken
system.switch_cpus.fetch.rate                1.382532                       # Number of inst fetches per cycle
system.switch_cpus.fetch.rateDist::samples   2438385090                       # Number of instructions fetched each cycle (Total)
system.switch_cpus.fetch.rateDist::mean      1.612349                       # Number of instructions fetched each cycle (Total)
system.switch_cpus.fetch.rateDist::stdev     2.800835                       # Number of instructions fetched each cycle (Total)
system.switch_cpus.fetch.rateDist::underflows            0      0.00%      0.00% # Number of instructions fetched each cycle (Total)
system.switch_cpus.fetch.rateDist::0       1677547831     68.80%     68.80% # Number of instructions fetched each cycle (Total)
system.switch_cpus.fetch.rateDist::1        118539935      4.86%     73.66% # Number of instructions fetched each cycle (Total)
system.switch_cpus.fetch.rateDist::2         45067975      1.85%     75.51% # Number of instructions fetched each cycle (Total)
system.switch_cpus.fetch.rateDist::3         76124795      3.12%     78.63% # Number of instructions fetched each cycle (Total)
system.switch_cpus.fetch.rateDist::4         53273985      2.18%     80.81% # Number of instructions fetched each cycle (Total)
system.switch_cpus.fetch.rateDist::5         59959465      2.46%     83.27% # Number of instructions fetched each cycle (Total)
system.switch_cpus.fetch.rateDist::6        124517972      5.11%     88.38% # Number of instructions fetched each cycle (Total)
system.switch_cpus.fetch.rateDist::7         32347969      1.33%     89.71% # Number of instructions fetched each cycle (Total)
system.switch_cpus.fetch.rateDist::8        251005163     10.29%    100.00% # Number of instructions fetched each cycle (Total)
system.switch_cpus.fetch.rateDist::overflows            0      0.00%    100.00% # Number of instructions fetched each cycle (Total)
system.switch_cpus.fetch.rateDist::min_value            0                       # Number of instructions fetched each cycle (Total)
system.switch_cpus.fetch.rateDist::max_value            8                       # Number of instructions fetched each cycle (Total)
system.switch_cpus.fetch.rateDist::total   2438385090                       # Number of instructions fetched each cycle (Total)
system.switch_cpus.idleCycles                    2035                       # Total number of cycles that the CPU has spent unscheduled due to idling
system.switch_cpus.iew.branchMispredicts      1856228                       # Number of branch mispredicts detected at execute
system.switch_cpus.iew.exec_branches        650832726                       # Number of branches executed
system.switch_cpus.iew.exec_nop                     0                       # number of nop insts executed
system.switch_cpus.iew.exec_rate             1.589703                       # Inst execution rate
system.switch_cpus.iew.exec_refs           1154923794                       # number of memory reference insts executed
system.switch_cpus.iew.exec_stores          446447680                       # Number of stores executed
system.switch_cpus.iew.exec_swp                     0                       # number of swp insts executed
system.switch_cpus.iew.iewBlockCycles       223093671                       # Number of cycles IEW is blocking
system.switch_cpus.iew.iewDispLoadInsts     692989096                       # Number of dispatched load instructions
system.switch_cpus.iew.iewDispNonSpecInsts     14610883                       # Number of dispatched non-speculative instructions
system.switch_cpus.iew.iewDispSquashedInsts        56781                       # Number of squashed instructions skipped by dispatch
system.switch_cpus.iew.iewDispStoreInsts    448499246                       # Number of dispatched store instructions
system.switch_cpus.iew.iewDispatchedInsts   3895903725                       # Number of instructions dispatched to IQ
system.switch_cpus.iew.iewExecLoadInsts     708476114                       # Number of load instructions executed
system.switch_cpus.iew.iewExecSquashedInsts      2491073                       # Number of squashed instructions skipped in execute
system.switch_cpus.iew.iewExecutedInsts    3876310443                       # Number of executed instructions
system.switch_cpus.iew.iewIQFullEvents         831135                       # Number of times the IQ has become full, causing a stall
system.switch_cpus.iew.iewIdleCycles                0                       # Number of cycles IEW is idle
system.switch_cpus.iew.iewLSQFullEvents      72809339                       # Number of times the LSQ has become full, causing a stall
system.switch_cpus.iew.iewSquashCycles        1637298                       # Number of cycles IEW is squashing
system.switch_cpus.iew.iewUnblockCycles      75002547                       # Number of cycles IEW is unblocking
system.switch_cpus.iew.lsq.thread0.blockedLoads            0                       # Number of blocked loads due to partial load-store forwarding
system.switch_cpus.iew.lsq.thread0.cacheBlocked        66373                       # Number of times an access to memory failed due to the cache being blocked
system.switch_cpus.iew.lsq.thread0.forwLoads    191894300                       # Number of loads that had data forwarded from stores
system.switch_cpus.iew.lsq.thread0.ignoredResponses         1315                       # Number of memory responses ignored because the instruction is squashed
system.switch_cpus.iew.lsq.thread0.invAddrLoads            0                       # Number of loads ignored due to an invalid address
system.switch_cpus.iew.lsq.thread0.invAddrSwpfs            0                       # Number of software prefetches ignored due to an invalid address
system.switch_cpus.iew.lsq.thread0.memOrderViolation        73389                       # Number of memory ordering violations
system.switch_cpus.iew.lsq.thread0.rescheduledLoads     16007482                       # Number of loads that were rescheduled
system.switch_cpus.iew.lsq.thread0.squashedLoads     12429321                       # Number of loads squashed
system.switch_cpus.iew.lsq.thread0.squashedStores      4797595                       # Number of stores squashed
system.switch_cpus.iew.memOrderViolationEvents        73389                       # Number of memory order violations
system.switch_cpus.iew.predictedNotTakenIncorrect       919088                       # Number of branches that were predicted not taken incorrectly
system.switch_cpus.iew.predictedTakenIncorrect       937140                       # Number of branches that were predicted taken incorrectly
system.switch_cpus.iew.wb_consumers        3897493332                       # num instructions consuming a value
system.switch_cpus.iew.wb_count            3858916588                       # cumulative count of insts written-back
system.switch_cpus.iew.wb_fanout             0.581459                       # average fanout of values written-back
system.switch_cpus.iew.wb_producers        2266230835                       # num instructions producing a value
system.switch_cpus.iew.wb_rate               1.582569                       # insts written-back per cycle
system.switch_cpus.iew.wb_sent             3859303176                       # cumulative count of insts sent to commit
system.switch_cpus.int_regfile_reads       4650665408                       # number of integer regfile reads
system.switch_cpus.int_regfile_writes      2750858362                       # number of integer regfile writes
system.switch_cpus.ipc                       1.339261                       # IPC: Instructions Per Cycle
system.switch_cpus.ipc_total                 1.339261                       # IPC: Total IPC of All Threads
system.switch_cpus.iq.FU_type_0::No_OpClass            0      0.00%      0.00% # Type of FU issued
system.switch_cpus.iq.FU_type_0::IntAlu    2383794277     61.46%     61.46% # Type of FU issued
system.switch_cpus.iq.FU_type_0::IntMult    192902192      4.97%     66.43% # Type of FU issued
system.switch_cpus.iq.FU_type_0::IntDiv             0      0.00%     66.43% # Type of FU issued
system.switch_cpus.iq.FU_type_0::FloatAdd     28524169      0.74%     67.17% # Type of FU issued
system.switch_cpus.iq.FU_type_0::FloatCmp     17795763      0.46%     67.62% # Type of FU issued
system.switch_cpus.iq.FU_type_0::FloatCvt      7708899      0.20%     67.82% # Type of FU issued
system.switch_cpus.iq.FU_type_0::FloatMult     25054282      0.65%     68.47% # Type of FU issued
system.switch_cpus.iq.FU_type_0::FloatMultAcc     29199843      0.75%     69.22% # Type of FU issued
system.switch_cpus.iq.FU_type_0::FloatDiv      4890402      0.13%     69.35% # Type of FU issued
system.switch_cpus.iq.FU_type_0::FloatMisc     31315325      0.81%     70.16% # Type of FU issued
system.switch_cpus.iq.FU_type_0::FloatSqrt            0      0.00%     70.16% # Type of FU issued
system.switch_cpus.iq.FU_type_0::SimdAdd            0      0.00%     70.16% # Type of FU issued
system.switch_cpus.iq.FU_type_0::SimdAddAcc            0      0.00%     70.16% # Type of FU issued
system.switch_cpus.iq.FU_type_0::SimdAlu      1617687      0.04%     70.20% # Type of FU issued
system.switch_cpus.iq.FU_type_0::SimdCmp            0      0.00%     70.20% # Type of FU issued
system.switch_cpus.iq.FU_type_0::SimdCvt            0      0.00%     70.20% # Type of FU issued
system.switch_cpus.iq.FU_type_0::SimdMisc           99      0.00%     70.20% # Type of FU issued
system.switch_cpus.iq.FU_type_0::SimdMult            0      0.00%     70.20% # Type of FU issued
system.switch_cpus.iq.FU_type_0::SimdMultAcc            0      0.00%     70.20% # Type of FU issued
system.switch_cpus.iq.FU_type_0::SimdShift            0      0.00%     70.20% # Type of FU issued
system.switch_cpus.iq.FU_type_0::SimdShiftAcc            0      0.00%     70.20% # Type of FU issued
system.switch_cpus.iq.FU_type_0::SimdDiv            0      0.00%     70.20% # Type of FU issued
system.switch_cpus.iq.FU_type_0::SimdSqrt            0      0.00%     70.20% # Type of FU issued
system.switch_cpus.iq.FU_type_0::SimdFloatAdd            0      0.00%     70.20% # Type of FU issued
system.switch_cpus.iq.FU_type_0::SimdFloatAlu            0      0.00%     70.20% # Type of FU issued
system.switch_cpus.iq.FU_type_0::SimdFloatCmp            0      0.00%     70.20% # Type of FU issued
system.switch_cpus.iq.FU_type_0::SimdFloatCvt            0      0.00%     70.20% # Type of FU issued
system.switch_cpus.iq.FU_type_0::SimdFloatDiv            0      0.00%     70.20% # Type of FU issued
system.switch_cpus.iq.FU_type_0::SimdFloatMisc            0      0.00%     70.20% # Type of FU issued
system.switch_cpus.iq.FU_type_0::SimdFloatMult            0      0.00%     70.20% # Type of FU issued
system.switch_cpus.iq.FU_type_0::SimdFloatMultAcc            0      0.00%     70.20% # Type of FU issued
system.switch_cpus.iq.FU_type_0::SimdFloatSqrt            0      0.00%     70.20% # Type of FU issued
system.switch_cpus.iq.FU_type_0::SimdReduceAdd            0      0.00%     70.20% # Type of FU issued
system.switch_cpus.iq.FU_type_0::SimdReduceAlu            0      0.00%     70.20% # Type of FU issued
system.switch_cpus.iq.FU_type_0::SimdReduceCmp            0      0.00%     70.20% # Type of FU issued
system.switch_cpus.iq.FU_type_0::SimdFloatReduceAdd            0      0.00%     70.20% # Type of FU issued
system.switch_cpus.iq.FU_type_0::SimdFloatReduceCmp            0      0.00%     70.20% # Type of FU issued
system.switch_cpus.iq.FU_type_0::SimdAes            0      0.00%     70.20% # Type of FU issued
system.switch_cpus.iq.FU_type_0::SimdAesMix            0      0.00%     70.20% # Type of FU issued
system.switch_cpus.iq.FU_type_0::SimdSha1Hash            0      0.00%     70.20% # Type of FU issued
system.switch_cpus.iq.FU_type_0::SimdSha1Hash2            0      0.00%     70.20% # Type of FU issued
system.switch_cpus.iq.FU_type_0::SimdSha256Hash            0      0.00%     70.20% # Type of FU issued
system.switch_cpus.iq.FU_type_0::SimdSha256Hash2            0      0.00%     70.20% # Type of FU issued
system.switch_cpus.iq.FU_type_0::SimdShaSigma2            0      0.00%     70.20% # Type of FU issued
system.switch_cpus.iq.FU_type_0::SimdShaSigma3            0      0.00%     70.20% # Type of FU issued
system.switch_cpus.iq.FU_type_0::SimdPredAlu            0      0.00%     70.20% # Type of FU issued
system.switch_cpus.iq.FU_type_0::MemRead    708551239     18.27%     88.46% # Type of FU issued
system.switch_cpus.iq.FU_type_0::MemWrite    447447339     11.54%    100.00% # Type of FU issued
system.switch_cpus.iq.FU_type_0::FloatMemRead            0      0.00%    100.00% # Type of FU issued
system.switch_cpus.iq.FU_type_0::FloatMemWrite            0      0.00%    100.00% # Type of FU issued
system.switch_cpus.iq.FU_type_0::IprAccess            0      0.00%    100.00% # Type of FU issued
system.switch_cpus.iq.FU_type_0::InstPrefetch            0      0.00%    100.00% # Type of FU issued
system.switch_cpus.iq.FU_type_0::total     3878801516                       # Type of FU issued
system.switch_cpus.iq.fp_alu_accesses               0                       # Number of floating point alu accesses
system.switch_cpus.iq.fp_inst_queue_reads            0                       # Number of floating instruction queue reads
system.switch_cpus.iq.fp_inst_queue_wakeup_accesses            0                       # Number of floating instruction queue wakeup accesses
system.switch_cpus.iq.fp_inst_queue_writes            0                       # Number of floating instruction queue writes
system.switch_cpus.iq.fu_busy_cnt            66799988                       # FU busy when requested
system.switch_cpus.iq.fu_busy_rate           0.017222                       # FU busy rate (busy events/executed inst)
system.switch_cpus.iq.fu_full::No_OpClass            0      0.00%      0.00% # attempts to use FU when none available
system.switch_cpus.iq.fu_full::IntAlu         8129302     12.17%     12.17% # attempts to use FU when none available
system.switch_cpus.iq.fu_full::IntMult        3218018      4.82%     16.99% # attempts to use FU when none available
system.switch_cpus.iq.fu_full::IntDiv               0      0.00%     16.99% # attempts to use FU when none available
system.switch_cpus.iq.fu_full::FloatAdd             0      0.00%     16.99% # attempts to use FU when none available
system.switch_cpus.iq.fu_full::FloatCmp             0      0.00%     16.99% # attempts to use FU when none available
system.switch_cpus.iq.fu_full::FloatCvt            48      0.00%     16.99% # attempts to use FU when none available
system.switch_cpus.iq.fu_full::FloatMult      2421295      3.62%     20.61% # attempts to use FU when none available
system.switch_cpus.iq.fu_full::FloatMultAcc      1886432      2.82%     23.44% # attempts to use FU when none available
system.switch_cpus.iq.fu_full::FloatDiv             3      0.00%     23.44% # attempts to use FU when none available
system.switch_cpus.iq.fu_full::FloatMisc       796674      1.19%     24.63% # attempts to use FU when none available
system.switch_cpus.iq.fu_full::FloatSqrt            0      0.00%     24.63% # attempts to use FU when none available
system.switch_cpus.iq.fu_full::SimdAdd              0      0.00%     24.63% # attempts to use FU when none available
system.switch_cpus.iq.fu_full::SimdAddAcc            0      0.00%     24.63% # attempts to use FU when none available
system.switch_cpus.iq.fu_full::SimdAlu              0      0.00%     24.63% # attempts to use FU when none available
system.switch_cpus.iq.fu_full::SimdCmp              0      0.00%     24.63% # attempts to use FU when none available
system.switch_cpus.iq.fu_full::SimdCvt              0      0.00%     24.63% # attempts to use FU when none available
system.switch_cpus.iq.fu_full::SimdMisc             0      0.00%     24.63% # attempts to use FU when none available
system.switch_cpus.iq.fu_full::SimdMult             0      0.00%     24.63% # attempts to use FU when none available
system.switch_cpus.iq.fu_full::SimdMultAcc            0      0.00%     24.63% # attempts to use FU when none available
system.switch_cpus.iq.fu_full::SimdShift            0      0.00%     24.63% # attempts to use FU when none available
system.switch_cpus.iq.fu_full::SimdShiftAcc            0      0.00%     24.63% # attempts to use FU when none available
system.switch_cpus.iq.fu_full::SimdDiv              0      0.00%     24.63% # attempts to use FU when none available
system.switch_cpus.iq.fu_full::SimdSqrt             0      0.00%     24.63% # attempts to use FU when none available
system.switch_cpus.iq.fu_full::SimdFloatAdd            0      0.00%     24.63% # attempts to use FU when none available
system.switch_cpus.iq.fu_full::SimdFloatAlu            0      0.00%     24.63% # attempts to use FU when none available
system.switch_cpus.iq.fu_full::SimdFloatCmp            0      0.00%     24.63% # attempts to use FU when none available
system.switch_cpus.iq.fu_full::SimdFloatCvt            0      0.00%     24.63% # attempts to use FU when none available
system.switch_cpus.iq.fu_full::SimdFloatDiv            0      0.00%     24.63% # attempts to use FU when none available
system.switch_cpus.iq.fu_full::SimdFloatMisc            0      0.00%     24.63% # attempts to use FU when none available
system.switch_cpus.iq.fu_full::SimdFloatMult            0      0.00%     24.63% # attempts to use FU when none available
system.switch_cpus.iq.fu_full::SimdFloatMultAcc            0      0.00%     24.63% # attempts to use FU when none available
system.switch_cpus.iq.fu_full::SimdFloatSqrt            0      0.00%     24.63% # attempts to use FU when none available
system.switch_cpus.iq.fu_full::SimdReduceAdd            0      0.00%     24.63% # attempts to use FU when none available
system.switch_cpus.iq.fu_full::SimdReduceAlu            0      0.00%     24.63% # attempts to use FU when none available
system.switch_cpus.iq.fu_full::SimdReduceCmp            0      0.00%     24.63% # attempts to use FU when none available
system.switch_cpus.iq.fu_full::SimdFloatReduceAdd            0      0.00%     24.63% # attempts to use FU when none available
system.switch_cpus.iq.fu_full::SimdFloatReduceCmp            0      0.00%     24.63% # attempts to use FU when none available
system.switch_cpus.iq.fu_full::SimdAes              0      0.00%     24.63% # attempts to use FU when none available
system.switch_cpus.iq.fu_full::SimdAesMix            0      0.00%     24.63% # attempts to use FU when none available
system.switch_cpus.iq.fu_full::SimdSha1Hash            0      0.00%     24.63% # attempts to use FU when none available
system.switch_cpus.iq.fu_full::SimdSha1Hash2            0      0.00%     24.63% # attempts to use FU when none available
system.switch_cpus.iq.fu_full::SimdSha256Hash            0      0.00%     24.63% # attempts to use FU when none available
system.switch_cpus.iq.fu_full::SimdSha256Hash2            0      0.00%     24.63% # attempts to use FU when none available
system.switch_cpus.iq.fu_full::SimdShaSigma2            0      0.00%     24.63% # attempts to use FU when none available
system.switch_cpus.iq.fu_full::SimdShaSigma3            0      0.00%     24.63% # attempts to use FU when none available
system.switch_cpus.iq.fu_full::SimdPredAlu            0      0.00%     24.63% # attempts to use FU when none available
system.switch_cpus.iq.fu_full::MemRead       24078181     36.05%     60.67% # attempts to use FU when none available
system.switch_cpus.iq.fu_full::MemWrite      26270035     39.33%    100.00% # attempts to use FU when none available
system.switch_cpus.iq.fu_full::FloatMemRead            0      0.00%    100.00% # attempts to use FU when none available
system.switch_cpus.iq.fu_full::FloatMemWrite            0      0.00%    100.00% # attempts to use FU when none available
system.switch_cpus.iq.fu_full::IprAccess            0      0.00%    100.00% # attempts to use FU when none available
system.switch_cpus.iq.fu_full::InstPrefetch            0      0.00%    100.00% # attempts to use FU when none available
system.switch_cpus.iq.int_alu_accesses     3681748560                       # Number of integer alu accesses
system.switch_cpus.iq.int_inst_queue_reads   9744366599                       # Number of integer instruction queue reads
system.switch_cpus.iq.int_inst_queue_wakeup_accesses   3615529032                       # Number of integer instruction queue wakeup accesses
system.switch_cpus.iq.int_inst_queue_writes   3656563970                       # Number of integer instruction queue writes
system.switch_cpus.iq.iqInstsAdded         3881292841                       # Number of instructions added to the IQ (excludes non-spec)
system.switch_cpus.iq.iqInstsIssued        3878801516                       # Number of instructions issued
system.switch_cpus.iq.iqNonSpecInstsAdded     14610884                       # Number of non-speculative instructions added to the IQ
system.switch_cpus.iq.iqSquashedInstsExamined     78617067                       # Number of squashed instructions iterated over during squash; mainly for profiling
system.switch_cpus.iq.iqSquashedInstsIssued         5433                       # Number of squashed instructions issued
system.switch_cpus.iq.iqSquashedNonSpecRemoved        50992                       # Number of squashed non-spec instructions that were removed
system.switch_cpus.iq.iqSquashedOperandsExamined    156162319                       # Number of squashed operands that are examined and possibly removed from graph
system.switch_cpus.iq.issued_per_cycle::samples   2438385090                       # Number of insts issued each cycle
system.switch_cpus.iq.issued_per_cycle::mean     1.590726                       # Number of insts issued each cycle
system.switch_cpus.iq.issued_per_cycle::stdev     2.122048                       # Number of insts issued each cycle
system.switch_cpus.iq.issued_per_cycle::underflows            0      0.00%      0.00% # Number of insts issued each cycle
system.switch_cpus.iq.issued_per_cycle::0   1216648351     49.90%     49.90% # Number of insts issued each cycle
system.switch_cpus.iq.issued_per_cycle::1    332117260     13.62%     63.52% # Number of insts issued each cycle
system.switch_cpus.iq.issued_per_cycle::2    240953255      9.88%     73.40% # Number of insts issued each cycle
system.switch_cpus.iq.issued_per_cycle::3    160920186      6.60%     80.00% # Number of insts issued each cycle
system.switch_cpus.iq.issued_per_cycle::4    162127033      6.65%     86.65% # Number of insts issued each cycle
system.switch_cpus.iq.issued_per_cycle::5    140096234      5.75%     92.39% # Number of insts issued each cycle
system.switch_cpus.iq.issued_per_cycle::6    101786856      4.17%     96.57% # Number of insts issued each cycle
system.switch_cpus.iq.issued_per_cycle::7     47580570      1.95%     98.52% # Number of insts issued each cycle
system.switch_cpus.iq.issued_per_cycle::8     36155345      1.48%    100.00% # Number of insts issued each cycle
system.switch_cpus.iq.issued_per_cycle::overflows            0      0.00%    100.00% # Number of insts issued each cycle
system.switch_cpus.iq.issued_per_cycle::min_value            0                       # Number of insts issued each cycle
system.switch_cpus.iq.issued_per_cycle::max_value            8                       # Number of insts issued each cycle
system.switch_cpus.iq.issued_per_cycle::total   2438385090                       # Number of insts issued each cycle
system.switch_cpus.iq.rate                   1.590724                       # Inst issue rate
system.switch_cpus.iq.vec_alu_accesses      263852944                       # Number of vector alu accesses
system.switch_cpus.iq.vec_inst_queue_reads    518426944                       # Number of vector instruction queue reads
system.switch_cpus.iq.vec_inst_queue_wakeup_accesses    243387556                       # Number of vector instruction queue wakeup accesses
system.switch_cpus.iq.vec_inst_queue_writes    318030130                       # Number of vector instruction queue writes
system.switch_cpus.itb.accesses                     0                       # DTB accesses
system.switch_cpus.itb.align_faults                 0                       # Number of TLB faults due to alignment restrictions
system.switch_cpus.itb.domain_faults                0                       # Number of TLB faults due to domain restrictions
system.switch_cpus.itb.flush_entries                0                       # Number of entries that have been flushed from TLB
system.switch_cpus.itb.flush_tlb                    0                       # Number of times complete TLB was flushed
system.switch_cpus.itb.flush_tlb_asid               0                       # Number of times TLB was flushed by ASID
system.switch_cpus.itb.flush_tlb_mva                0                       # Number of times TLB was flushed by MVA
system.switch_cpus.itb.flush_tlb_mva_asid            0                       # Number of times TLB was flushed by MVA & ASID
system.switch_cpus.itb.hits                         0                       # DTB hits
system.switch_cpus.itb.inst_accesses                0                       # ITB inst accesses
system.switch_cpus.itb.inst_hits                    0                       # ITB inst hits
system.switch_cpus.itb.inst_misses                  0                       # ITB inst misses
system.switch_cpus.itb.misses                       0                       # DTB misses
system.switch_cpus.itb.perms_faults                 0                       # Number of TLB faults due to permissions restrictions
system.switch_cpus.itb.prefetch_faults              0                       # Number of TLB faults due to prefetch
system.switch_cpus.itb.read_accesses                0                       # DTB read accesses
system.switch_cpus.itb.read_hits                    0                       # DTB read hits
system.switch_cpus.itb.read_misses                  0                       # DTB read misses
system.switch_cpus.itb.stage2_mmu.stage2_tlb.accesses            0                       # DTB accesses
system.switch_cpus.itb.stage2_mmu.stage2_tlb.align_faults            0                       # Number of TLB faults due to alignment restrictions
system.switch_cpus.itb.stage2_mmu.stage2_tlb.domain_faults            0                       # Number of TLB faults due to domain restrictions
system.switch_cpus.itb.stage2_mmu.stage2_tlb.flush_entries            0                       # Number of entries that have been flushed from TLB
system.switch_cpus.itb.stage2_mmu.stage2_tlb.flush_tlb            0                       # Number of times complete TLB was flushed
system.switch_cpus.itb.stage2_mmu.stage2_tlb.flush_tlb_asid            0                       # Number of times TLB was flushed by ASID
system.switch_cpus.itb.stage2_mmu.stage2_tlb.flush_tlb_mva            0                       # Number of times TLB was flushed by MVA
system.switch_cpus.itb.stage2_mmu.stage2_tlb.flush_tlb_mva_asid            0                       # Number of times TLB was flushed by MVA & ASID
system.switch_cpus.itb.stage2_mmu.stage2_tlb.hits            0                       # DTB hits
system.switch_cpus.itb.stage2_mmu.stage2_tlb.inst_accesses            0                       # ITB inst accesses
system.switch_cpus.itb.stage2_mmu.stage2_tlb.inst_hits            0                       # ITB inst hits
system.switch_cpus.itb.stage2_mmu.stage2_tlb.inst_misses            0                       # ITB inst misses
system.switch_cpus.itb.stage2_mmu.stage2_tlb.misses            0                       # DTB misses
system.switch_cpus.itb.stage2_mmu.stage2_tlb.perms_faults            0                       # Number of TLB faults due to permissions restrictions
system.switch_cpus.itb.stage2_mmu.stage2_tlb.prefetch_faults            0                       # Number of TLB faults due to prefetch
system.switch_cpus.itb.stage2_mmu.stage2_tlb.read_accesses            0                       # DTB read accesses
system.switch_cpus.itb.stage2_mmu.stage2_tlb.read_hits            0                       # DTB read hits
system.switch_cpus.itb.stage2_mmu.stage2_tlb.read_misses            0                       # DTB read misses
system.switch_cpus.itb.stage2_mmu.stage2_tlb.walker.walkRequestOrigin_Requested::Data            0                       # Table walker requests started/completed, data/inst
system.switch_cpus.itb.stage2_mmu.stage2_tlb.walker.walkRequestOrigin_Requested::Inst            0                       # Table walker requests started/completed, data/inst
system.switch_cpus.itb.stage2_mmu.stage2_tlb.walker.walkRequestOrigin_Requested::total            0                       # Table walker requests started/completed, data/inst
system.switch_cpus.itb.stage2_mmu.stage2_tlb.walker.walkRequestOrigin_Completed::Data            0                       # Table walker requests started/completed, data/inst
system.switch_cpus.itb.stage2_mmu.stage2_tlb.walker.walkRequestOrigin_Completed::Inst            0                       # Table walker requests started/completed, data/inst
system.switch_cpus.itb.stage2_mmu.stage2_tlb.walker.walkRequestOrigin_Completed::total            0                       # Table walker requests started/completed, data/inst
system.switch_cpus.itb.stage2_mmu.stage2_tlb.walker.walkRequestOrigin::total            0                       # Table walker requests started/completed, data/inst
system.switch_cpus.itb.stage2_mmu.stage2_tlb.walker.walks            0                       # Table walker walks requested
system.switch_cpus.itb.stage2_mmu.stage2_tlb.write_accesses            0                       # DTB write accesses
system.switch_cpus.itb.stage2_mmu.stage2_tlb.write_hits            0                       # DTB write hits
system.switch_cpus.itb.stage2_mmu.stage2_tlb.write_misses            0                       # DTB write misses
system.switch_cpus.itb.walker.walkRequestOrigin_Requested::Data            0                       # Table walker requests started/completed, data/inst
system.switch_cpus.itb.walker.walkRequestOrigin_Requested::Inst            0                       # Table walker requests started/completed, data/inst
system.switch_cpus.itb.walker.walkRequestOrigin_Requested::total            0                       # Table walker requests started/completed, data/inst
system.switch_cpus.itb.walker.walkRequestOrigin_Completed::Data            0                       # Table walker requests started/completed, data/inst
system.switch_cpus.itb.walker.walkRequestOrigin_Completed::Inst            0                       # Table walker requests started/completed, data/inst
system.switch_cpus.itb.walker.walkRequestOrigin_Completed::total            0                       # Table walker requests started/completed, data/inst
system.switch_cpus.itb.walker.walkRequestOrigin::total            0                       # Table walker requests started/completed, data/inst
system.switch_cpus.itb.walker.walks                 0                       # Table walker walks requested
system.switch_cpus.itb.write_accesses               0                       # DTB write accesses
system.switch_cpus.itb.write_hits                   0                       # DTB write hits
system.switch_cpus.itb.write_misses                 0                       # DTB write misses
system.switch_cpus.memDep0.conflictingLoads     31294866                       # Number of conflicting loads.
system.switch_cpus.memDep0.conflictingStores     32498408                       # Number of conflicting stores.
system.switch_cpus.memDep0.insertedLoads    692989096                       # Number of loads inserted to the mem dependence unit.
system.switch_cpus.memDep0.insertedStores    448499246                       # Number of stores inserted to the mem dependence unit.
system.switch_cpus.misc_regfile_reads      4310097891                       # number of misc regfile reads
system.switch_cpus.misc_regfile_writes      167803039                       # number of misc regfile writes
system.switch_cpus.numCycles               2438387125                       # number of cpu cycles simulated
system.switch_cpus.numWorkItemsCompleted            0                       # number of work items this cpu completed
[...]
system.cpu.dcache.demand_hits::.switch_cpus.data    886401315                       # number of demand (read+write) hits
system.cpu.dcache.demand_hits::total       1552623336                       # number of demand (read+write) hits
system.cpu.dcache.overall_hits::.cpu.data    666222021                       # number of overall hits
system.cpu.dcache.overall_hits::.switch_cpus.data    886401315                       # number of overall hits
system.cpu.dcache.overall_hits::total      1552623336                       # number of overall hits
system.cpu.dcache.demand_misses::.cpu.data      5609662                       # number of demand (read+write) misses
system.cpu.dcache.demand_misses::.switch_cpus.data     32216435                       # number of demand (read+write) misses
system.cpu.dcache.demand_misses::total       37826097                       # number of demand (read+write) misses
system.cpu.dcache.overall_misses::.cpu.data      5609662                       # number of overall misses
system.cpu.dcache.overall_misses::.switch_cpus.data     32216435                       # number of overall misses
system.cpu.dcache.overall_misses::total      37826097                       # number of overall misses
system.cpu.dcache.demand_miss_latency::.switch_cpus.data 1406257865246                       # number of demand (read+write) miss cycles
system.cpu.dcache.demand_miss_latency::total 1406257865246                       # number of demand (read+write) miss cycles
system.cpu.dcache.overall_miss_latency::.switch_cpus.data 1406257865246                       # number of overall miss cycles
system.cpu.dcache.overall_miss_latency::total 1406257865246                       # number of overall miss cycles
system.cpu.dcache.demand_accesses::.cpu.data    671831683                       # number of demand (read+write) accesses
system.cpu.dcache.demand_accesses::.switch_cpus.data    918617750                       # number of demand (read+write) accesses
system.cpu.dcache.demand_accesses::total   1590449433                       # number of demand (read+write) accesses
system.cpu.dcache.overall_accesses::.cpu.data    671831683                       # number of overall (read+write) accesses
system.cpu.dcache.overall_accesses::.switch_cpus.data    918617750                       # number of overall (read+write) accesses
system.cpu.dcache.overall_accesses::total   1590449433                       # number of overall (read+write) accesses
system.cpu.dcache.demand_miss_rate::.cpu.data     0.008350                       # miss rate for demand accesses
system.cpu.dcache.demand_miss_rate::.switch_cpus.data     0.035071                       # miss rate for demand accesses
system.cpu.dcache.demand_miss_rate::total     0.023783                       # miss rate for demand accesses
system.cpu.dcache.overall_miss_rate::.cpu.data     0.008350                       # miss rate for overall accesses
system.cpu.dcache.overall_miss_rate::.switch_cpus.data     0.035071                       # miss rate for overall accesses
system.cpu.dcache.overall_miss_rate::total     0.023783                       # miss rate for overall accesses
system.cpu.dcache.demand_avg_miss_latency::.switch_cpus.data 43650.325222                       # average overall miss latency
system.cpu.dcache.demand_avg_miss_latency::total 37176.922199                       # average overall miss latency
system.cpu.dcache.overall_avg_miss_latency::.switch_cpus.data 43650.325222                       # average overall miss latency
system.cpu.dcache.overall_avg_miss_latency::total 37176.922199                       # average overall miss latency
system.cpu.dcache.blocked_cycles::no_mshrs       862873                       # number of cycles access was blocked
system.cpu.dcache.blocked_cycles::no_targets         6350                       # number of cycles access was blocked
system.cpu.dcache.blocked::no_mshrs             78473                       # number of cycles access was blocked
system.cpu.dcache.blocked::no_targets              40                       # number of cycles access was blocked
system.cpu.dcache.avg_blocked_cycles::no_mshrs    10.995795                       # average number of cycles each access was blocked
system.cpu.dcache.avg_blocked_cycles::no_targets   158.750000                       # average number of cycles each access was blocked
system.cpu.dcache.writebacks::.writebacks      2473015                       # number of writebacks
system.cpu.dcache.writebacks::total           2473015                       # number of writebacks
system.cpu.dcache.demand_mshr_hits::.switch_cpus.data     22231974                       # number of demand (read+write) MSHR hits
system.cpu.dcache.demand_mshr_hits::total     22231974                       # number of demand (read+write) MSHR hits
system.cpu.dcache.overall_mshr_hits::.switch_cpus.data     22231974                       # number of overall MSHR hits
system.cpu.dcache.overall_mshr_hits::total     22231974                       # number of overall MSHR hits
system.cpu.dcache.demand_mshr_misses::.switch_cpus.data      9984461                       # number of demand (read+write) MSHR misses
system.cpu.dcache.demand_mshr_misses::total      9984461                       # number of demand (read+write) MSHR misses
system.cpu.dcache.overall_mshr_misses::.switch_cpus.data      9984461                       # number of overall MSHR misses
system.cpu.dcache.overall_mshr_misses::total      9984461                       # number of overall MSHR misses
system.cpu.dcache.demand_mshr_miss_latency::.switch_cpus.data 369417115371                       # number of demand (read+write) MSHR miss cycles
system.cpu.dcache.demand_mshr_miss_latency::total 369417115371                       # number of demand (read+write) MSHR miss cycles
system.cpu.dcache.overall_mshr_miss_latency::.switch_cpus.data 369417115371                       # number of overall MSHR miss cycles
system.cpu.dcache.overall_mshr_miss_latency::total 369417115371                       # number of overall MSHR miss cycles
system.cpu.dcache.demand_mshr_miss_rate::.switch_cpus.data     0.010869                       # mshr miss rate for demand accesses
system.cpu.dcache.demand_mshr_miss_rate::total     0.006278                       # mshr miss rate for demand accesses
system.cpu.dcache.overall_mshr_miss_rate::.switch_cpus.data     0.010869                       # mshr miss rate for overall accesses
system.cpu.dcache.overall_mshr_miss_rate::total     0.006278                       # mshr miss rate for overall accesses
system.cpu.dcache.demand_avg_mshr_miss_latency::.switch_cpus.data 36999.204601                       # average overall mshr miss latency
system.cpu.dcache.demand_avg_mshr_miss_latency::total 36999.204601                       # average overall mshr miss latency
system.cpu.dcache.overall_avg_mshr_miss_latency::.switch_cpus.data 36999.204601                       # average overall mshr miss latency
system.cpu.dcache.overall_avg_mshr_miss_latency::total 36999.204601                       # average overall mshr miss latency
system.cpu.dcache.replacements               15605418                       # number of replacements
system.cpu.dcache.ReadReq_hits::.cpu.data    402277453                       # number of ReadReq hits
system.cpu.dcache.ReadReq_hits::.switch_cpus.data    457439978                       # number of ReadReq hits
system.cpu.dcache.ReadReq_hits::total       859717431                       # number of ReadReq hits
system.cpu.dcache.ReadReq_misses::.cpu.data      5247261                       # number of ReadReq misses
system.cpu.dcache.ReadReq_misses::.switch_cpus.data     32034596                       # number of ReadReq misses
system.cpu.dcache.ReadReq_misses::total      37281857                       # number of ReadReq misses
system.cpu.dcache.ReadReq_miss_latency::.switch_cpus.data 1398633093315                       # number of ReadReq miss cycles
system.cpu.dcache.ReadReq_miss_latency::total 1398633093315                       # number of ReadReq miss cycles
system.cpu.dcache.ReadReq_accesses::.cpu.data    407524714                       # number of ReadReq accesses(hits+misses)
system.cpu.dcache.ReadReq_accesses::.switch_cpus.data    489474574                       # number of ReadReq accesses(hits+misses)
system.cpu.dcache.ReadReq_accesses::total    896999288                       # number of ReadReq accesses(hits+misses)
system.cpu.dcache.ReadReq_miss_rate::.cpu.data     0.012876                       # miss rate for ReadReq accesses
system.cpu.dcache.ReadReq_miss_rate::.switch_cpus.data     0.065447                       # miss rate for ReadReq accesses
system.cpu.dcache.ReadReq_miss_rate::total     0.041563                       # miss rate for ReadReq accesses
system.cpu.dcache.ReadReq_avg_miss_latency::.switch_cpus.data 43660.082160                       # average ReadReq miss latency
system.cpu.dcache.ReadReq_avg_miss_latency::total 37515.113405                       # average ReadReq miss latency
system.cpu.dcache.ReadReq_mshr_hits::.switch_cpus.data     22131411                       # number of ReadReq MSHR hits
system.cpu.dcache.ReadReq_mshr_hits::total     22131411                       # number of ReadReq MSHR hits
system.cpu.dcache.ReadReq_mshr_misses::.switch_cpus.data      9903185                       # number of ReadReq MSHR misses
system.cpu.dcache.ReadReq_mshr_misses::total      9903185                       # number of ReadReq MSHR misses
system.cpu.dcache.ReadReq_mshr_miss_latency::.switch_cpus.data 367737254640                       # number of ReadReq MSHR miss cycles
system.cpu.dcache.ReadReq_mshr_miss_latency::total 367737254640                       # number of ReadReq MSHR miss cycles
system.cpu.dcache.ReadReq_mshr_miss_rate::.switch_cpus.data     0.020232                       # mshr miss rate for ReadReq accesses
system.cpu.dcache.ReadReq_mshr_miss_rate::total     0.011040                       # mshr miss rate for ReadReq accesses
system.cpu.dcache.ReadReq_avg_mshr_miss_latency::.switch_cpus.data 37133.230838                       # average ReadReq mshr miss latency
system.cpu.dcache.ReadReq_avg_mshr_miss_latency::total 37133.230838                       # average ReadReq mshr miss latency
system.cpu.dcache.WriteReq_hits::.cpu.data    263944568                       # number of WriteReq hits
system.cpu.dcache.WriteReq_hits::.switch_cpus.data    428961337                       # number of WriteReq hits
system.cpu.dcache.WriteReq_hits::total      692905905                       # number of WriteReq hits
system.cpu.dcache.WriteReq_misses::.cpu.data       362401                       # number of WriteReq misses
system.cpu.dcache.WriteReq_misses::.switch_cpus.data       181839                       # number of WriteReq misses
system.cpu.dcache.WriteReq_misses::total       544240                       # number of WriteReq misses
system.cpu.dcache.WriteReq_miss_latency::.switch_cpus.data   7624771931                       # number of WriteReq miss cycles
system.cpu.dcache.WriteReq_miss_latency::total   7624771931                       # number of WriteReq miss cycles
system.cpu.dcache.WriteReq_accesses::.cpu.data    264306969                       # number of WriteReq accesses(hits+misses)
system.cpu.dcache.WriteReq_accesses::.switch_cpus.data    429143176                       # number of WriteReq accesses(hits+misses)
system.cpu.dcache.WriteReq_accesses::total    693450145                       # number of WriteReq accesses(hits+misses)
system.cpu.dcache.WriteReq_miss_rate::.cpu.data     0.001371                       # miss rate for WriteReq accesses
system.cpu.dcache.WriteReq_miss_rate::.switch_cpus.data     0.000424                       # miss rate for WriteReq accesses
system.cpu.dcache.WriteReq_miss_rate::total     0.000785                       # miss rate for WriteReq accesses
system.cpu.dcache.WriteReq_avg_miss_latency::.switch_cpus.data 41931.444470                       # average WriteReq miss latency
system.cpu.dcache.WriteReq_avg_miss_latency::total 14009.944016                       # average WriteReq miss latency
system.cpu.dcache.WriteReq_mshr_hits::.switch_cpus.data       100563                       # number of WriteReq MSHR hits
system.cpu.dcache.WriteReq_mshr_hits::total       100563                       # number of WriteReq MSHR hits
system.cpu.dcache.WriteReq_mshr_misses::.switch_cpus.data        81276                       # number of WriteReq MSHR misses
system.cpu.dcache.WriteReq_mshr_misses::total        81276                       # number of WriteReq MSHR misses
system.cpu.dcache.WriteReq_mshr_miss_latency::.switch_cpus.data   1679860731                       # number of WriteReq MSHR miss cycles
system.cpu.dcache.WriteReq_mshr_miss_latency::total   1679860731                       # number of WriteReq MSHR miss cycles
system.cpu.dcache.WriteReq_mshr_miss_rate::.switch_cpus.data     0.000189                       # mshr miss rate for WriteReq accesses
system.cpu.dcache.WriteReq_mshr_miss_rate::total     0.000117                       # mshr miss rate for WriteReq accesses
system.cpu.dcache.WriteReq_avg_mshr_miss_latency::.switch_cpus.data 20668.595047                       # average WriteReq mshr miss latency
system.cpu.dcache.WriteReq_avg_mshr_miss_latency::total 20668.595047                       # average WriteReq mshr miss latency
system.cpu.dcache.LoadLockedReq_hits::.cpu.data      5927808                       # number of LoadLockedReq hits
system.cpu.dcache.LoadLockedReq_hits::.switch_cpus.data     14546974                       # number of LoadLockedReq hits
system.cpu.dcache.LoadLockedReq_hits::total     20474782                       # number of LoadLockedReq hits
system.cpu.dcache.LoadLockedReq_misses::.cpu.data         4934                       # number of LoadLockedReq misses
system.cpu.dcache.LoadLockedReq_misses::.switch_cpus.data        13050                       # number of LoadLockedReq misses
system.cpu.dcache.LoadLockedReq_misses::total        17984                       # number of LoadLockedReq misses
system.cpu.dcache.LoadLockedReq_miss_latency::.switch_cpus.data    129317121                       # number of LoadLockedReq miss cycles
system.cpu.dcache.LoadLockedReq_miss_latency::total    129317121                       # number of LoadLockedReq miss cycles
system.cpu.dcache.LoadLockedReq_accesses::.cpu.data      5932742                       # number of LoadLockedReq accesses(hits+misses)
system.cpu.dcache.LoadLockedReq_accesses::.switch_cpus.data     14560024                       # number of LoadLockedReq accesses(hits+misses)
system.cpu.dcache.LoadLockedReq_accesses::total     20492766                       # number of LoadLockedReq accesses(hits+misses)
system.cpu.dcache.LoadLockedReq_miss_rate::.cpu.data     0.000832                       # miss rate for LoadLockedReq accesses
system.cpu.dcache.LoadLockedReq_miss_rate::.switch_cpus.data     0.000896                       # miss rate for LoadLockedReq accesses
system.cpu.dcache.LoadLockedReq_miss_rate::total     0.000878                       # miss rate for LoadLockedReq accesses
system.cpu.dcache.LoadLockedReq_avg_miss_latency::.switch_cpus.data  9909.357931                       # average LoadLockedReq miss latency
system.cpu.dcache.LoadLockedReq_avg_miss_latency::total  7190.676212                       # average LoadLockedReq miss latency
system.cpu.dcache.LoadLockedReq_mshr_hits::.switch_cpus.data         6433                       # number of LoadLockedReq MSHR hits
system.cpu.dcache.LoadLockedReq_mshr_hits::total         6433                       # number of LoadLockedReq MSHR hits
system.cpu.dcache.LoadLockedReq_mshr_misses::.switch_cpus.data         6617                       # number of LoadLockedReq MSHR misses
system.cpu.dcache.LoadLockedReq_mshr_misses::total         6617                       # number of LoadLockedReq MSHR misses
system.cpu.dcache.LoadLockedReq_mshr_miss_latency::.switch_cpus.data     66327186                       # number of LoadLockedReq MSHR miss cycles
system.cpu.dcache.LoadLockedReq_mshr_miss_latency::total     66327186                       # number of LoadLockedReq MSHR miss cycles
system.cpu.dcache.LoadLockedReq_mshr_miss_rate::.switch_cpus.data     0.000454                       # mshr miss rate for LoadLockedReq accesses
system.cpu.dcache.LoadLockedReq_mshr_miss_rate::total     0.000323                       # mshr miss rate for LoadLockedReq accesses
system.cpu.dcache.LoadLockedReq_avg_mshr_miss_latency::.switch_cpus.data 10023.754874                       # average LoadLockedReq mshr miss latency
system.cpu.dcache.LoadLockedReq_avg_mshr_miss_latency::total 10023.754874                       # average LoadLockedReq mshr miss latency
system.cpu.dcache.StoreCondReq_hits::.cpu.data      5932742                       # number of StoreCondReq hits
system.cpu.dcache.StoreCondReq_hits::.switch_cpus.data     14559793                       # number of StoreCondReq hits
system.cpu.dcache.StoreCondReq_hits::total     20492535                       # number of StoreCondReq hits
system.cpu.dcache.StoreCondReq_accesses::.cpu.data      5932742                       # number of StoreCondReq accesses(hits+misses)
system.cpu.dcache.StoreCondReq_accesses::.switch_cpus.data     14559793                       # number of StoreCondReq accesses(hits+misses)
system.cpu.dcache.StoreCondReq_accesses::total     20492535                       # number of StoreCondReq accesses(hits+misses)
system.cpu.dcache.tags.pwrStateResidencyTicks::UNDEFINED 2000000000000                       # Cumulative time (in ticks) in various power states
system.cpu.dcache.tags.tagsinuse           255.999314                       # Cycle average of tags in use
system.cpu.dcache.tags.total_refs          1609196327                       # Total number of references to valid blocks.
system.cpu.dcache.tags.sampled_refs          15605674                       # Sample count of references to valid blocks.
system.cpu.dcache.tags.avg_refs            103.116106                       # Average number of references to valid blocks.
system.cpu.dcache.tags.warmup_cycle              1668                       # Cycle when the warmup percentage was hit.
system.cpu.dcache.tags.occ_blocks::.cpu.data   127.919955                       # Average occupied blocks per requestor
system.cpu.dcache.tags.occ_blocks::.switch_cpus.data   128.079359                       # Average occupied blocks per requestor
system.cpu.dcache.tags.occ_percent::.cpu.data     0.499687                       # Average percentage of cache occupancy
system.cpu.dcache.tags.occ_percent::.switch_cpus.data     0.500310                       # Average percentage of cache occupancy
system.cpu.dcache.tags.occ_percent::total     0.999997                       # Average percentage of cache occupancy
system.cpu.dcache.tags.occ_task_id_blocks::1024          256                       # Occupied blocks per task id
system.cpu.dcache.tags.age_task_id_blocks_1024::0           97                       # Occupied blocks per task id
system.cpu.dcache.tags.age_task_id_blocks_1024::1          105                       # Occupied blocks per task id
system.cpu.dcache.tags.age_task_id_blocks_1024::2           49                       # Occupied blocks per task id
system.cpu.dcache.tags.age_task_id_blocks_1024::3            1                       # Occupied blocks per task id
system.cpu.dcache.tags.age_task_id_blocks_1024::4            4                       # Occupied blocks per task id
system.cpu.dcache.tags.occ_task_id_percent::1024            1                       # Percentage of cache occupancy per task id
system.cpu.dcache.tags.tag_accesses       52221517162                       # Number of tag accesses
system.cpu.dcache.tags.data_accesses      52221517162                       # Number of data accesses

---------- End Simulation Statistics   ----------
