
---------- Begin Simulation Statistics ----------
sim_seconds                                  0.118406                       # Number of seconds simulated
sim_ticks                                118405612969                       # Number of ticks simulated
final_tick                               1176264434282                       # Number of ticks from beginning of simulation (restored from checkpoints and never reset)
sim_freq                                 1000000000000                       # Frequency of simulated ticks
host_inst_rate                                  51452                       # Simulator instruction rate (inst/s)
host_op_rate                                    64935                       # Simulator op (including micro ops) rate (op/s)
host_tick_rate                                1378527                       # Simulator tick rate (ticks/s)
host_mem_usage                               16940460                       # Number of bytes of host memory used
host_seconds                                 85892.83                       # Real time elapsed on the host
sim_insts                                  4419344975                       # Number of instructions simulated
sim_ops                                    5577471673                       # Number of ops (including micro ops) simulated
system.physmem.bytes_read::switch_cpus0.inst         1280                       # Number of bytes read from this memory
system.physmem.bytes_read::switch_cpus0.data       728064                       # Number of bytes read from this memory
system.physmem.bytes_read::switch_cpus1.inst         1664                       # Number of bytes read from this memory
system.physmem.bytes_read::switch_cpus1.data      1224704                       # Number of bytes read from this memory
system.physmem.bytes_read::switch_cpus2.inst         1792                       # Number of bytes read from this memory
system.physmem.bytes_read::switch_cpus2.data       338176                       # Number of bytes read from this memory
system.physmem.bytes_read::switch_cpus3.inst         2048                       # Number of bytes read from this memory
system.physmem.bytes_read::switch_cpus3.data       306432                       # Number of bytes read from this memory
system.physmem.bytes_read::total              2604160                       # Number of bytes read from this memory
system.physmem.bytes_inst_read::switch_cpus0.inst         1280                       # Number of instructions bytes read from this memory
system.physmem.bytes_inst_read::switch_cpus1.inst         1664                       # Number of instructions bytes read from this memory
system.physmem.bytes_inst_read::switch_cpus2.inst         1792                       # Number of instructions bytes read from this memory
system.physmem.bytes_inst_read::switch_cpus3.inst         2048                       # Number of instructions bytes read from this memory
system.physmem.bytes_inst_read::total            6784                       # Number of instructions bytes read from this memory
system.physmem.bytes_written::writebacks      1861120                       # Number of bytes written to this memory
system.physmem.bytes_written::total           1861120                       # Number of bytes written to this memory
system.physmem.num_reads::switch_cpus0.inst           10                       # Number of read requests responded to by this memory
system.physmem.num_reads::switch_cpus0.data         5688                       # Number of read requests responded to by this memory
system.physmem.num_reads::switch_cpus1.inst           13                       # Number of read requests responded to by this memory
system.physmem.num_reads::switch_cpus1.data         9568                       # Number of read requests responded to by this memory
system.physmem.num_reads::switch_cpus2.inst           14                       # Number of read requests responded to by this memory
system.physmem.num_reads::switch_cpus2.data         2642                       # Number of read requests responded to by this memory
system.physmem.num_reads::switch_cpus3.inst           16                       # Number of read requests responded to by this memory
system.physmem.num_reads::switch_cpus3.data         2394                       # Number of read requests responded to by this memory
system.physmem.num_reads::total                 20345                       # Number of read requests responded to by this memory
system.physmem.num_writes::writebacks           14540                       # Number of write requests responded to by this memory
system.physmem.num_writes::functional               0                       # Number of write requests responded to by this memory
system.physmem.num_writes::interrupt                0                       # Number of write requests responded to by this memory
system.physmem.num_writes::switch_cpus0.dtb.walker            0                       # Number of write requests responded to by this memory
system.physmem.num_writes::switch_cpus0.itb.walker            0                       # Number of write requests responded to by this memory
system.physmem.num_writes::switch_cpus0.inst            0                       # Number of write requests responded to by this memory
system.physmem.num_writes::switch_cpus0.data            0                       # Number of write requests responded to by this memory
system.physmem.num_writes::switch_cpus1.dtb.walker            0                       # Number of write requests responded to by this memory
system.physmem.num_writes::switch_cpus1.itb.walker            0                       # Number of write requests responded to by this memory
system.physmem.num_writes::switch_cpus1.inst            0                       # Number of write requests responded to by this memory
system.physmem.num_writes::switch_cpus1.data            0                       # Number of write requests responded to by this memory
system.physmem.num_writes::switch_cpus2.dtb.walker            0                       # Number of write requests responded to by this memory
system.physmem.num_writes::switch_cpus2.itb.walker            0                       # Number of write requests responded to by this memory
system.physmem.num_writes::switch_cpus2.inst            0                       # Number of write requests responded to by this memory
system.physmem.num_writes::switch_cpus2.data            0                       # Number of write requests responded to by this memory
system.physmem.num_writes::switch_cpus3.dtb.walker            0                       # Number of write requests responded to by this memory
system.physmem.num_writes::switch_cpus3.itb.walker            0                       # Number of write requests responded to by this memory
system.physmem.num_writes::switch_cpus3.inst            0                       # Number of write requests responded to by this memory
system.physmem.num_writes::switch_cpus3.data            0                       # Number of write requests responded to by this memory
system.physmem.num_writes::cpu0.dtb.walker            0                       # Number of write requests responded to by this memory
system.physmem.num_writes::cpu0.itb.walker            0                       # Number of write requests responded to by this memory
system.physmem.num_writes::cpu0.inst                0                       # Number of write requests responded to by this memory
system.physmem.num_writes::cpu0.data                0                       # Number of write requests responded to by this memory
system.physmem.num_writes::cpu1.dtb.walker            0                       # Number of write requests responded to by this memory
system.physmem.num_writes::cpu1.itb.walker            0                       # Number of write requests responded to by this memory
system.physmem.num_writes::cpu1.inst                0                       # Number of write requests responded to by this memory
system.physmem.num_writes::cpu1.data                0                       # Number of write requests responded to by this memory
system.physmem.num_writes::cpu2.dtb.walker            0                       # Number of write requests responded to by this memory
system.physmem.num_writes::cpu2.itb.walker            0                       # Number of write requests responded to by this memory
system.physmem.num_writes::cpu2.inst                0                       # Number of write requests responded to by this memory
system.physmem.num_writes::cpu2.data                0                       # Number of write requests responded to by this memory
system.physmem.num_writes::cpu3.dtb.walker            0                       # Number of write requests responded to by this memory
system.physmem.num_writes::cpu3.itb.walker            0                       # Number of write requests responded to by this memory
system.physmem.num_writes::cpu3.inst                0                       # Number of write requests responded to by this memory
system.physmem.num_writes::cpu3.data                0                       # Number of write requests responded to by this memory
system.physmem.num_writes::total                14540                       # Number of write requests responded to by this memory
system.physmem.bw_read::switch_cpus0.inst        10810                       # Total read bandwidth from this memory (bytes/s)
system.physmem.bw_read::switch_cpus0.data      6148898                       # Total read bandwidth from this memory (bytes/s)
system.physmem.bw_read::switch_cpus1.inst        14053                       # Total read bandwidth from this memory (bytes/s)
system.physmem.bw_read::switch_cpus1.data     10343293                       # Total read bandwidth from this memory (bytes/s)
system.physmem.bw_read::switch_cpus2.inst        15134                       # Total read bandwidth from this memory (bytes/s)
system.physmem.bw_read::switch_cpus2.data      2856081                       # Total read bandwidth from this memory (bytes/s)
system.physmem.bw_read::switch_cpus3.inst        17296                       # Total read bandwidth from this memory (bytes/s)
system.physmem.bw_read::switch_cpus3.data      2587985                       # Total read bandwidth from this memory (bytes/s)
system.physmem.bw_read::total                21993552                       # Total read bandwidth from this memory (bytes/s)
system.physmem.bw_inst_read::switch_cpus0.inst        10810                       # Instruction read bandwidth from this memory (bytes/s)
system.physmem.bw_inst_read::switch_cpus1.inst        14053                       # Instruction read bandwidth from this memory (bytes/s)
system.physmem.bw_inst_read::switch_cpus2.inst        15134                       # Instruction read bandwidth from this memory (bytes/s)
system.physmem.bw_inst_read::switch_cpus3.inst        17296                       # Instruction read bandwidth from this memory (bytes/s)
system.physmem.bw_inst_read::total              57295                       # Instruction read bandwidth from this memory (bytes/s)
system.physmem.bw_write::writebacks          15718174                       # Write bandwidth from this memory (bytes/s)
system.physmem.bw_write::total               15718174                       # Write bandwidth from this memory (bytes/s)
system.physmem.bw_total::writebacks          15718174                       # Total bandwidth to/from this memory (bytes/s)
system.physmem.bw_total::switch_cpus0.inst        10810                       # Total bandwidth to/from this memory (bytes/s)
system.physmem.bw_total::switch_cpus0.data      6148898                       # Total bandwidth to/from this memory (bytes/s)
system.physmem.bw_total::switch_cpus1.inst        14053                       # Total bandwidth to/from this memory (bytes/s)
system.physmem.bw_total::switch_cpus1.data     10343293                       # Total bandwidth to/from this memory (bytes/s)
system.physmem.bw_total::switch_cpus2.inst        15134                       # Total bandwidth to/from this memory (bytes/s)
system.physmem.bw_total::switch_cpus2.data      2856081                       # Total bandwidth to/from this memory (bytes/s)
system.physmem.bw_total::switch_cpus3.inst        17296                       # Total bandwidth to/from this memory (bytes/s)
system.physmem.bw_total::switch_cpus3.data      2587985                       # Total bandwidth to/from this memory (bytes/s)
system.physmem.bw_total::total               37711726                       # Total bandwidth to/from this memory (bytes/s)
system.switch_cpus0.dtb.inst_hits                   0                       # ITB inst hits
system.switch_cpus0.dtb.inst_misses                 0                       # ITB inst misses
system.switch_cpus0.dtb.read_hits                   0                       # DTB read hits
system.switch_cpus0.dtb.read_misses                 0                       # DTB read misses
system.switch_cpus0.dtb.write_hits                  0                       # DTB write hits
system.switch_cpus0.dtb.write_misses                0                       # DTB write misses
system.switch_cpus0.dtb.flush_tlb                   0                       # Number of times complete TLB was flushed
system.switch_cpus0.dtb.flush_tlb_mva               0                       # Number of times TLB was flushed by MVA
system.switch_cpus0.dtb.flush_tlb_mva_asid            0                       # Number of times TLB was flushed by MVA & ASID
system.switch_cpus0.dtb.flush_tlb_asid              0                       # Number of times TLB was flushed by ASID
system.switch_cpus0.dtb.flush_entries               0                       # Number of entries that have been flushed from TLB
system.switch_cpus0.dtb.align_faults                0                       # Number of TLB faults due to alignment restrictions
system.switch_cpus0.dtb.prefetch_faults             0                       # Number of TLB faults due to prefetch
system.switch_cpus0.dtb.domain_faults               0                       # Number of TLB faults due to domain restrictions
system.switch_cpus0.dtb.perms_faults                0                       # Number of TLB faults due to permissions restrictions
system.switch_cpus0.dtb.read_accesses               0                       # DTB read accesses
system.switch_cpus0.dtb.write_accesses              0                       # DTB write accesses
system.switch_cpus0.dtb.inst_accesses               0                       # ITB inst accesses
system.switch_cpus0.dtb.hits                        0                       # DTB hits
system.switch_cpus0.dtb.misses                      0                       # DTB misses
system.switch_cpus0.dtb.accesses                    0                       # DTB accesses
system.switch_cpus0.itb.inst_hits                   0                       # ITB inst hits
system.switch_cpus0.itb.inst_misses                 0                       # ITB inst misses
system.switch_cpus0.itb.read_hits                   0                       # DTB read hits
system.switch_cpus0.itb.read_misses                 0                       # DTB read misses
system.switch_cpus0.itb.write_hits                  0                       # DTB write hits
system.switch_cpus0.itb.write_misses                0                       # DTB write misses
system.switch_cpus0.itb.flush_tlb                   0                       # Number of times complete TLB was flushed
system.switch_cpus0.itb.flush_tlb_mva               0                       # Number of times TLB was flushed by MVA
system.switch_cpus0.itb.flush_tlb_mva_asid            0                       # Number of times TLB was flushed by MVA & ASID
system.switch_cpus0.itb.flush_tlb_asid              0                       # Number of times TLB was flushed by ASID
system.switch_cpus0.itb.flush_entries               0                       # Number of entries that have been flushed from TLB
system.switch_cpus0.itb.align_faults                0                       # Number of TLB faults due to alignment restrictions
system.switch_cpus0.itb.prefetch_faults             0                       # Number of TLB faults due to prefetch
system.switch_cpus0.itb.domain_faults               0                       # Number of TLB faults due to domain restrictions
system.switch_cpus0.itb.perms_faults                0                       # Number of TLB faults due to permissions restrictions
system.switch_cpus0.itb.read_accesses               0                       # DTB read accesses
system.switch_cpus0.itb.write_accesses              0                       # DTB write accesses
system.switch_cpus0.itb.inst_accesses               0                       # ITB inst accesses
system.switch_cpus0.itb.hits                        0                       # DTB hits
system.switch_cpus0.itb.misses                      0                       # DTB misses
system.switch_cpus0.itb.accesses                    0                       # DTB accesses
system.cpu0.workload.num_syscalls                   0                       # Number of system calls
system.switch_cpus0.numCycles               142143594                       # number of cpu cycles simulated
system.switch_cpus0.numWorkItemsStarted             0                       # number of work items this cpu started
system.switch_cpus0.numWorkItemsCompleted            0                       # number of work items this cpu completed
system.switch_cpus0.BPredUnit.lookups        23162733                       # Number of BP lookups
system.switch_cpus0.BPredUnit.condPredicted     19073276                       # Number of conditional branches predicted
system.switch_cpus0.BPredUnit.condIncorrect      1931464                       # Number of conditional branches incorrect
system.switch_cpus0.BPredUnit.BTBLookups      9416475                       # Number of BTB lookups
system.switch_cpus0.BPredUnit.BTBHits         8663025                       # Number of BTB hits
system.switch_cpus0.BPredUnit.BTBCorrect            0                       # Number of correct BTB predictions (this stat may not work properly.
system.switch_cpus0.BPredUnit.usedRAS         2438422                       # Number of times the RAS was used to get a target.
system.switch_cpus0.BPredUnit.RASInCorrect        87803                       # Number of incorrect RAS predictions.
system.switch_cpus0.fetch.icacheStallCycles    104455392                       # Number of cycles fetch is stalled on an Icache miss
system.switch_cpus0.fetch.Insts             128007817                       # Number of instructions fetch has processed
system.switch_cpus0.fetch.Branches           23162733                       # Number of branches that fetch encountered
system.switch_cpus0.fetch.predictedBranches     11101447                       # Number of branches that fetch has predicted taken
system.switch_cpus0.fetch.Cycles             27184087                       # Number of cycles fetch has run and was not squashing or blocked
system.switch_cpus0.fetch.SquashCycles        6259462                       # Number of cycles fetch has spent squashing
system.switch_cpus0.fetch.BlockedCycles       4435295                       # Number of cycles fetch has spent blocked
system.switch_cpus0.fetch.CacheLines         12100353                       # Number of cache lines fetched
system.switch_cpus0.fetch.IcacheSquashes      1572733                       # Number of outstanding Icache misses that were squashed
system.switch_cpus0.fetch.rateDist::samples    140370640                       # Number of instructions fetched each cycle (Total)
system.switch_cpus0.fetch.rateDist::mean     1.110928                       # Number of instructions fetched each cycle (Total)
system.switch_cpus0.fetch.rateDist::stdev     2.552331                       # Number of instructions fetched each cycle (Total)
system.switch_cpus0.fetch.rateDist::underflows            0      0.00%      0.00% # Number of instructions fetched each cycle (Total)
system.switch_cpus0.fetch.rateDist::0       113186553     80.63%     80.63% # Number of instructions fetched each cycle (Total)
system.switch_cpus0.fetch.rateDist::1         2781033      1.98%     82.62% # Number of instructions fetched each cycle (Total)
system.switch_cpus0.fetch.rateDist::2         2365362      1.69%     84.30% # Number of instructions fetched each cycle (Total)
system.switch_cpus0.fetch.rateDist::3         2381173      1.70%     86.00% # Number of instructions fetched each cycle (Total)
system.switch_cpus0.fetch.rateDist::4         2262492      1.61%     87.61% # Number of instructions fetched each cycle (Total)
system.switch_cpus0.fetch.rateDist::5         1126102      0.80%     88.41% # Number of instructions fetched each cycle (Total)
system.switch_cpus0.fetch.rateDist::6          779634      0.56%     88.97% # Number of instructions fetched each cycle (Total)
system.switch_cpus0.fetch.rateDist::7         1978203      1.41%     90.38% # Number of instructions fetched each cycle (Total)
system.switch_cpus0.fetch.rateDist::8        13510088      9.62%    100.00% # Number of instructions fetched each cycle (Total)
system.switch_cpus0.fetch.rateDist::overflows            0      0.00%    100.00% # Number of instructions fetched each cycle (Total)
system.switch_cpus0.fetch.rateDist::min_value            0                       # Number of instructions fetched each cycle (Total)
system.switch_cpus0.fetch.rateDist::max_value            8                       # Number of instructions fetched each cycle (Total)
system.switch_cpus0.fetch.rateDist::total    140370640                       # Number of instructions fetched each cycle (Total)
system.switch_cpus0.fetch.branchRate         0.162953                       # Number of branch fetches per cycle
system.switch_cpus0.fetch.rate               0.900553                       # Number of inst fetches per cycle
system.switch_cpus0.decode.IdleCycles       103286428                       # Number of cycles decode is idle
system.switch_cpus0.decode.BlockedCycles      5848912                       # Number of cycles decode is blocked
system.switch_cpus0.decode.RunCycles         26836900                       # Number of cycles decode is running
system.switch_cpus0.decode.UnblockCycles       108988                       # Number of cycles decode is unblocking
system.switch_cpus0.decode.SquashCycles       4289403                       # Number of cycles decode is squashing
system.switch_cpus0.decode.BranchResolved      3730522                       # Number of times decode resolved a branch
system.switch_cpus0.decode.BranchMispred         6464                       # Number of times decode detected a branch misprediction
system.switch_cpus0.decode.DecodedInsts     154414498                       # Number of instructions handled by decode
system.switch_cpus0.decode.SquashedInsts        51156                       # Number of squashed instructions handled by decode
system.switch_cpus0.rename.SquashCycles       4289403                       # Number of cycles rename is squashing
system.switch_cpus0.rename.IdleCycles       103799166                       # Number of cycles rename is idle
system.switch_cpus0.rename.BlockCycles        3399935                       # Number of cycles rename is blocking
system.switch_cpus0.rename.serializeStallCycles      1301693                       # count of cycles rename stalled for serializing inst
system.switch_cpus0.rename.RunCycles         26422705                       # Number of cycles rename is running
system.switch_cpus0.rename.UnblockCycles      1157730                       # Number of cycles rename is unblocking
system.switch_cpus0.rename.RenamedInsts     152970404                       # Number of instructions processed by rename
system.switch_cpus0.rename.ROBFullEvents          376                       # Number of times rename has blocked due to ROB full
system.switch_cpus0.rename.IQFullEvents        399130                       # Number of times rename has blocked due to IQ full
system.switch_cpus0.rename.LSQFullEvents       622846                       # Number of times rename has blocked due to LSQ full
system.switch_cpus0.rename.FullRegisterEvents         8981                       # Number of times there has been no free registers
system.switch_cpus0.rename.RenamedOperands    214024715                       # Number of destination operands rename has renamed
system.switch_cpus0.rename.RenameLookups    713036652                       # Number of register rename lookups that rename has made
system.switch_cpus0.rename.int_rename_lookups    713036652                       # Number of integer rename lookups
system.switch_cpus0.rename.CommittedMaps    168259218                       # Number of HB maps that are committed
system.switch_cpus0.rename.UndoneMaps        45765490                       # Number of HB maps that are undone due to squashing
system.switch_cpus0.rename.serializingInsts        33913                       # count of serializing insts renamed
system.switch_cpus0.rename.tempSerializingInsts        17891                       # count of temporary serializing insts renamed
system.switch_cpus0.rename.skidInsts          3794098                       # count of insts added to the skid buffer
system.switch_cpus0.memDep0.insertedLoads     15187870                       # Number of loads inserted to the mem dependence unit.
system.switch_cpus0.memDep0.insertedStores      7904617                       # Number of stores inserted to the mem dependence unit.
system.switch_cpus0.memDep0.conflictingLoads       312344                       # Number of conflicting loads.
system.switch_cpus0.memDep0.conflictingStores      1697119                       # Number of conflicting stores.
system.switch_cpus0.iq.iqInstsAdded         149118574                       # Number of instructions added to the IQ (excludes non-spec)
system.switch_cpus0.iq.iqNonSpecInstsAdded        33913                       # Number of non-speculative instructions added to the IQ
system.switch_cpus0.iq.iqInstsIssued        139190723                       # Number of instructions issued
system.switch_cpus0.iq.iqSquashedInstsIssued       108617                       # Number of squashed instructions issued
system.switch_cpus0.iq.iqSquashedInstsExamined     25181610                       # Number of squashed instructions iterated over during squash; mainly for profiling
system.switch_cpus0.iq.iqSquashedOperandsExamined     57131127                       # Number of squashed operands that are examined and possibly removed from graph
system.switch_cpus0.iq.iqSquashedNonSpecRemoved         1869                       # Number of squashed non-spec instructions that were removed
system.switch_cpus0.iq.issued_per_cycle::samples    140370640                       # Number of insts issued each cycle
system.switch_cpus0.iq.issued_per_cycle::mean     0.991594                       # Number of insts issued each cycle
system.switch_cpus0.iq.issued_per_cycle::stdev     1.586359                       # Number of insts issued each cycle
system.switch_cpus0.iq.issued_per_cycle::underflows            0      0.00%      0.00% # Number of insts issued each cycle
system.switch_cpus0.iq.issued_per_cycle::0     83006405     59.13%     59.13% # Number of insts issued each cycle
system.switch_cpus0.iq.issued_per_cycle::1     23708691     16.89%     76.02% # Number of insts issued each cycle
system.switch_cpus0.iq.issued_per_cycle::2     11952105      8.51%     84.54% # Number of insts issued each cycle
system.switch_cpus0.iq.issued_per_cycle::3      7813007      5.57%     90.10% # Number of insts issued each cycle
system.switch_cpus0.iq.issued_per_cycle::4      6904264      4.92%     95.02% # Number of insts issued each cycle
system.switch_cpus0.iq.issued_per_cycle::5      2705150      1.93%     96.95% # Number of insts issued each cycle
system.switch_cpus0.iq.issued_per_cycle::6      3067189      2.19%     99.14% # Number of insts issued each cycle
system.switch_cpus0.iq.issued_per_cycle::7      1117771      0.80%     99.93% # Number of insts issued each cycle
system.switch_cpus0.iq.issued_per_cycle::8        96058      0.07%    100.00% # Number of insts issued each cycle
system.switch_cpus0.iq.issued_per_cycle::overflows            0      0.00%    100.00% # Number of insts issued each cycle
system.switch_cpus0.iq.issued_per_cycle::min_value            0                       # Number of insts issued each cycle
system.switch_cpus0.iq.issued_per_cycle::max_value            8                       # Number of insts issued each cycle
system.switch_cpus0.iq.issued_per_cycle::total    140370640                       # Number of insts issued each cycle
system.switch_cpus0.iq.fu_full::No_OpClass            0      0.00%      0.00% # attempts to use FU when none available
system.switch_cpus0.iq.fu_full::IntAlu         976383     74.70%     74.70% # attempts to use FU when none available
system.switch_cpus0.iq.fu_full::IntMult             0      0.00%     74.70% # attempts to use FU when none available
system.switch_cpus0.iq.fu_full::IntDiv              0      0.00%     74.70% # attempts to use FU when none available
system.switch_cpus0.iq.fu_full::FloatAdd            0      0.00%     74.70% # attempts to use FU when none available
system.switch_cpus0.iq.fu_full::FloatCmp            0      0.00%     74.70% # attempts to use FU when none available
system.switch_cpus0.iq.fu_full::FloatCvt            0      0.00%     74.70% # attempts to use FU when none available
system.switch_cpus0.iq.fu_full::FloatMult            0      0.00%     74.70% # attempts to use FU when none available
system.switch_cpus0.iq.fu_full::FloatDiv            0      0.00%     74.70% # attempts to use FU when none available
system.switch_cpus0.iq.fu_full::FloatSqrt            0      0.00%     74.70% # attempts to use FU when none available
system.switch_cpus0.iq.fu_full::SimdAdd             0      0.00%     74.70% # attempts to use FU when none available
system.switch_cpus0.iq.fu_full::SimdAddAcc            0      0.00%     74.70% # attempts to use FU when none available
system.switch_cpus0.iq.fu_full::SimdAlu             0      0.00%     74.70% # attempts to use FU when none available
system.switch_cpus0.iq.fu_full::SimdCmp             0      0.00%     74.70% # attempts to use FU when none available
system.switch_cpus0.iq.fu_full::SimdCvt             0      0.00%     74.70% # attempts to use FU when none available
system.switch_cpus0.iq.fu_full::SimdMisc            0      0.00%     74.70% # attempts to use FU when none available
system.switch_cpus0.iq.fu_full::SimdMult            0      0.00%     74.70% # attempts to use FU when none available
system.switch_cpus0.iq.fu_full::SimdMultAcc            0      0.00%     74.70% # attempts to use FU when none available
system.switch_cpus0.iq.fu_full::SimdShift            0      0.00%     74.70% # attempts to use FU when none available
system.switch_cpus0.iq.fu_full::SimdShiftAcc            0      0.00%     74.70% # attempts to use FU when none available
system.switch_cpus0.iq.fu_full::SimdSqrt            0      0.00%     74.70% # attempts to use FU when none available
system.switch_cpus0.iq.fu_full::SimdFloatAdd            0      0.00%     74.70% # attempts to use FU when none available
system.switch_cpus0.iq.fu_full::SimdFloatAlu            0      0.00%     74.70% # attempts to use FU when none available
system.switch_cpus0.iq.fu_full::SimdFloatCmp            0      0.00%     74.70% # attempts to use FU when none available
system.switch_cpus0.iq.fu_full::SimdFloatCvt            0      0.00%     74.70% # attempts to use FU when none available
system.switch_cpus0.iq.fu_full::SimdFloatDiv            0      0.00%     74.70% # attempts to use FU when none available
system.switch_cpus0.iq.fu_full::SimdFloatMisc            0      0.00%     74.70% # attempts to use FU when none available
system.switch_cpus0.iq.fu_full::SimdFloatMult            0      0.00%     74.70% # attempts to use FU when none available
system.switch_cpus0.iq.fu_full::SimdFloatMultAcc            0      0.00%     74.70% # attempts to use FU when none available
system.switch_cpus0.iq.fu_full::SimdFloatSqrt            0      0.00%     74.70% # attempts to use FU when none available
system.switch_cpus0.iq.fu_full::MemRead        158100     12.10%     86.80% # attempts to use FU when none available
system.switch_cpus0.iq.fu_full::MemWrite       172508     13.20%    100.00% # attempts to use FU when none available
system.switch_cpus0.iq.fu_full::IprAccess            0      0.00%    100.00% # attempts to use FU when none available
system.switch_cpus0.iq.fu_full::InstPrefetch            0      0.00%    100.00% # attempts to use FU when none available
system.switch_cpus0.iq.FU_type_0::No_OpClass            0      0.00%      0.00% # Type of FU issued
system.switch_cpus0.iq.FU_type_0::IntAlu    114953237     82.59%     82.59% # Type of FU issued
system.switch_cpus0.iq.FU_type_0::IntMult      2012296      1.45%     84.03% # Type of FU issued
system.switch_cpus0.iq.FU_type_0::IntDiv            0      0.00%     84.03% # Type of FU issued
system.switch_cpus0.iq.FU_type_0::FloatAdd            0      0.00%     84.03% # Type of FU issued
system.switch_cpus0.iq.FU_type_0::FloatCmp            0      0.00%     84.03% # Type of FU issued
system.switch_cpus0.iq.FU_type_0::FloatCvt            0      0.00%     84.03% # Type of FU issued
system.switch_cpus0.iq.FU_type_0::FloatMult            0      0.00%     84.03% # Type of FU issued
system.switch_cpus0.iq.FU_type_0::FloatDiv            0      0.00%     84.03% # Type of FU issued
system.switch_cpus0.iq.FU_type_0::FloatSqrt            0      0.00%     84.03% # Type of FU issued
system.switch_cpus0.iq.FU_type_0::SimdAdd            0      0.00%     84.03% # Type of FU issued
system.switch_cpus0.iq.FU_type_0::SimdAddAcc            0      0.00%     84.03% # Type of FU issued
system.switch_cpus0.iq.FU_type_0::SimdAlu            0      0.00%     84.03% # Type of FU issued
system.switch_cpus0.iq.FU_type_0::SimdCmp            0      0.00%     84.03% # Type of FU issued
system.switch_cpus0.iq.FU_type_0::SimdCvt            0      0.00%     84.03% # Type of FU issued
system.switch_cpus0.iq.FU_type_0::SimdMisc            0      0.00%     84.03% # Type of FU issued
system.switch_cpus0.iq.FU_type_0::SimdMult            0      0.00%     84.03% # Type of FU issued
system.switch_cpus0.iq.FU_type_0::SimdMultAcc            0      0.00%     84.03% # Type of FU issued
system.switch_cpus0.iq.FU_type_0::SimdShift            0      0.00%     84.03% # Type of FU issued
system.switch_cpus0.iq.FU_type_0::SimdShiftAcc            0      0.00%     84.03% # Type of FU issued
system.switch_cpus0.iq.FU_type_0::SimdSqrt            0      0.00%     84.03% # Type of FU issued
system.switch_cpus0.iq.FU_type_0::SimdFloatAdd            0      0.00%     84.03% # Type of FU issued
system.switch_cpus0.iq.FU_type_0::SimdFloatAlu            0      0.00%     84.03% # Type of FU issued
system.switch_cpus0.iq.FU_type_0::SimdFloatCmp            0      0.00%     84.03% # Type of FU issued
system.switch_cpus0.iq.FU_type_0::SimdFloatCvt            0      0.00%     84.03% # Type of FU issued
system.switch_cpus0.iq.FU_type_0::SimdFloatDiv            0      0.00%     84.03% # Type of FU issued
system.switch_cpus0.iq.FU_type_0::SimdFloatMisc        16022      0.01%     84.04% # Type of FU issued
system.switch_cpus0.iq.FU_type_0::SimdFloatMult            0      0.00%     84.04% # Type of FU issued
system.switch_cpus0.iq.FU_type_0::SimdFloatMultAcc            0      0.00%     84.04% # Type of FU issued
system.switch_cpus0.iq.FU_type_0::SimdFloatSqrt            0      0.00%     84.04% # Type of FU issued
system.switch_cpus0.iq.FU_type_0::MemRead     14362175     10.32%     94.36% # Type of FU issued
system.switch_cpus0.iq.FU_type_0::MemWrite      7846993      5.64%    100.00% # Type of FU issued
system.switch_cpus0.iq.FU_type_0::IprAccess            0      0.00%    100.00% # Type of FU issued
system.switch_cpus0.iq.FU_type_0::InstPrefetch            0      0.00%    100.00% # Type of FU issued
system.switch_cpus0.iq.FU_type_0::total     139190723                       # Type of FU issued
system.switch_cpus0.iq.rate                  0.979226                       # Inst issue rate
system.switch_cpus0.iq.fu_busy_cnt            1306991                       # FU busy when requested
system.switch_cpus0.iq.fu_busy_rate          0.009390                       # FU busy rate (busy events/executed inst)
system.switch_cpus0.iq.int_inst_queue_reads    420167694                       # Number of integer instruction queue reads
system.switch_cpus0.iq.int_inst_queue_writes    174334769                       # Number of integer instruction queue writes
system.switch_cpus0.iq.int_inst_queue_wakeup_accesses    135075842                       # Number of integer instruction queue wakeup accesses
system.switch_cpus0.iq.fp_inst_queue_reads            0                       # Number of floating instruction queue reads
system.switch_cpus0.iq.fp_inst_queue_writes            0                       # Number of floating instruction queue writes
system.switch_cpus0.iq.fp_inst_queue_wakeup_accesses            0                       # Number of floating instruction queue wakeup accesses
system.switch_cpus0.iq.int_alu_accesses     140497714                       # Number of integer alu accesses
system.switch_cpus0.iq.fp_alu_accesses              0                       # Number of floating point alu accesses
system.switch_cpus0.iew.lsq.thread0.forwLoads       203059                       # Number of loads that had data forwarded from stores
system.switch_cpus0.iew.lsq.thread0.invAddrLoads            0                       # Number of loads ignored due to an invalid address
system.switch_cpus0.iew.lsq.thread0.squashedLoads      2975741                       # Number of loads squashed
system.switch_cpus0.iew.lsq.thread0.ignoredResponses         1225                       # Number of memory responses ignored because the instruction is squashed
system.switch_cpus0.iew.lsq.thread0.memOrderViolation          684                       # Number of memory ordering violations
system.switch_cpus0.iew.lsq.thread0.squashedStores       162947                       # Number of stores squashed
system.switch_cpus0.iew.lsq.thread0.invAddrSwpfs            0                       # Number of software prefetches ignored due to an invalid address
system.switch_cpus0.iew.lsq.thread0.blockedLoads            0                       # Number of blocked loads due to partial load-store forwarding
system.switch_cpus0.iew.lsq.thread0.rescheduledLoads          597                       # Number of loads that were rescheduled
system.switch_cpus0.iew.lsq.thread0.cacheBlocked            0                       # Number of times an access to memory failed due to the cache being blocked
system.switch_cpus0.iew.iewIdleCycles               0                       # Number of cycles IEW is idle
system.switch_cpus0.iew.iewSquashCycles       4289403                       # Number of cycles IEW is squashing
system.switch_cpus0.iew.iewBlockCycles        2746795                       # Number of cycles IEW is blocking
system.switch_cpus0.iew.iewUnblockCycles       247158                       # Number of cycles IEW is unblocking
system.switch_cpus0.iew.iewDispatchedInsts    149152487                       # Number of instructions dispatched to IQ
system.switch_cpus0.iew.iewDispSquashedInsts      1165332                       # Number of squashed instructions skipped by dispatch
system.switch_cpus0.iew.iewDispLoadInsts     15187870                       # Number of dispatched load instructions
system.switch_cpus0.iew.iewDispStoreInsts      7904617                       # Number of dispatched store instructions
system.switch_cpus0.iew.iewDispNonSpecInsts        17891                       # Number of dispatched non-speculative instructions
system.switch_cpus0.iew.iewIQFullEvents        197074                       # Number of times the IQ has become full, causing a stall
system.switch_cpus0.iew.iewLSQFullEvents        13069                       # Number of times the LSQ has become full, causing a stall
system.switch_cpus0.iew.memOrderViolationEvents          684                       # Number of memory order violations
system.switch_cpus0.iew.predictedTakenIncorrect      1149327                       # Number of branches that were predicted taken incorrectly
system.switch_cpus0.iew.predictedNotTakenIncorrect      1084909                       # Number of branches that were predicted not taken incorrectly
system.switch_cpus0.iew.branchMispredicts      2234236                       # Number of branch mispredicts detected at execute
system.switch_cpus0.iew.iewExecutedInsts    136816885                       # Number of executed instructions
system.switch_cpus0.iew.iewExecLoadInsts     14111834                       # Number of load instructions executed
system.switch_cpus0.iew.iewExecSquashedInsts      2373838                       # Number of squashed instructions skipped in execute
system.switch_cpus0.iew.exec_swp                    0                       # number of swp insts executed
system.switch_cpus0.iew.exec_nop                    0                       # number of nop insts executed
system.switch_cpus0.iew.exec_refs            21957314                       # number of memory reference insts executed
system.switch_cpus0.iew.exec_branches        19290760                       # Number of branches executed
system.switch_cpus0.iew.exec_stores           7845480                       # Number of stores executed
system.switch_cpus0.iew.exec_rate            0.962526                       # Inst execution rate
system.switch_cpus0.iew.wb_sent             135082503                       # cumulative count of insts sent to commit
system.switch_cpus0.iew.wb_count            135075842                       # cumulative count of insts written-back
system.switch_cpus0.iew.wb_producers         81520302                       # num instructions producing a value
system.switch_cpus0.iew.wb_consumers        221162268                       # num instructions consuming a value
system.switch_cpus0.iew.wb_penalized                0                       # number of instrctions required to write to 'other' IQ
system.switch_cpus0.iew.wb_rate              0.950277                       # insts written-back per cycle
system.switch_cpus0.iew.wb_fanout            0.368600                       # average fanout of values written-back
system.switch_cpus0.iew.wb_penalized_rate            0                       # fraction of instructions written-back that wrote to 'other' IQ
system.switch_cpus0.commit.commitCommittedInsts    100000000                       # The number of committed instructions
system.switch_cpus0.commit.commitCommittedOps    122421916                       # The number of committed instructions
system.switch_cpus0.commit.commitSquashedInsts     26737502                       # The number of squashed insts skipped by commit
system.switch_cpus0.commit.commitNonSpecStalls        32044                       # The number of times commit has been forced to stall to communicate backwards
system.switch_cpus0.commit.branchMispredicts      1956601                       # The number of times a branch was mispredicted
system.switch_cpus0.commit.committed_per_cycle::samples    136081237                       # Number of insts commited each cycle
system.switch_cpus0.commit.committed_per_cycle::mean     0.899624                       # Number of insts commited each cycle
system.switch_cpus0.commit.committed_per_cycle::stdev     1.714564                       # Number of insts commited each cycle
system.switch_cpus0.commit.committed_per_cycle::underflows            0      0.00%      0.00% # Number of insts commited each cycle
system.switch_cpus0.commit.committed_per_cycle::0     86986172     63.92%     63.92% # Number of insts commited each cycle
system.switch_cpus0.commit.committed_per_cycle::1     22501743     16.54%     80.46% # Number of insts commited each cycle
system.switch_cpus0.commit.committed_per_cycle::2     10808139      7.94%     88.40% # Number of insts commited each cycle
system.switch_cpus0.commit.committed_per_cycle::3      4814676      3.54%     91.94% # Number of insts commited each cycle
system.switch_cpus0.commit.committed_per_cycle::4      3767165      2.77%     94.71% # Number of insts commited each cycle
system.switch_cpus0.commit.committed_per_cycle::5      1537861      1.13%     95.84% # Number of insts commited each cycle
system.switch_cpus0.commit.committed_per_cycle::6      1563372      1.15%     96.99% # Number of insts commited each cycle
system.switch_cpus0.commit.committed_per_cycle::7      1095202      0.80%     97.79% # Number of insts commited each cycle
system.switch_cpus0.commit.committed_per_cycle::8      3006907      2.21%    100.00% # Number of insts commited each cycle
system.switch_cpus0.commit.committed_per_cycle::overflows            0      0.00%    100.00% # Number of insts commited each cycle
system.switch_cpus0.commit.committed_per_cycle::min_value            0                       # Number of insts commited each cycle
system.switch_cpus0.commit.committed_per_cycle::max_value            8                       # Number of insts commited each cycle
system.switch_cpus0.commit.committed_per_cycle::total    136081237                       # Number of insts commited each cycle
system.switch_cpus0.commit.committedInsts    100000000                       # Number of instructions committed
system.switch_cpus0.commit.committedOps     122421916                       # Number of ops (including micro ops) committed
system.switch_cpus0.commit.swp_count                0                       # Number of s/w prefetches committed
system.switch_cpus0.commit.refs              19953796                       # Number of memory references committed
system.switch_cpus0.commit.loads             12212126                       # Number of loads committed
system.switch_cpus0.commit.membars              16022                       # Number of memory barriers committed
system.switch_cpus0.commit.branches          17573934                       # Number of branches committed
system.switch_cpus0.commit.fp_insts                 0                       # Number of committed floating point instructions.
system.switch_cpus0.commit.int_insts        110146122                       # Number of committed integer instructions.
system.switch_cpus0.commit.function_calls      2413416                       # Number of function calls committed.
system.switch_cpus0.commit.bw_lim_events      3006907                       # number cycles where commit BW limit reached
system.switch_cpus0.commit.bw_limited               0                       # number of insts not committed due to BW limits
system.switch_cpus0.rob.rob_reads           282233748                       # The number of ROB reads
system.switch_cpus0.rob.rob_writes          302608539                       # The number of ROB writes
system.switch_cpus0.timesIdled                  54846                       # Number of times that the entire CPU went into an idle state and unscheduled itself
system.switch_cpus0.idleCycles                1772954                       # Total number of cycles that the CPU has spent unscheduled due to idling
system.switch_cpus0.committedInsts          100000000                       # Number of Instructions Simulated
system.switch_cpus0.committedOps            122421916                       # Number of Ops (including micro ops) Simulated
system.switch_cpus0.committedInsts_total    100000000                       # Number of Instructions Simulated
system.switch_cpus0.cpi                      1.421436                       # CPI: Cycles Per Instruction
system.switch_cpus0.cpi_total                1.421436                       # CPI: Total CPI of All Threads
system.switch_cpus0.ipc                      0.703514                       # IPC: Instructions Per Cycle
system.switch_cpus0.ipc_total                0.703514                       # IPC: Total IPC of All Threads
system.switch_cpus0.int_regfile_reads       618267199                       # number of integer regfile reads
system.switch_cpus0.int_regfile_writes      186388977                       # number of integer regfile writes
system.switch_cpus0.misc_regfile_reads      145783664                       # number of misc regfile reads
system.switch_cpus0.misc_regfile_writes         32044                       # number of misc regfile writes
system.switch_cpus1.dtb.inst_hits                   0                       # ITB inst hits
system.switch_cpus1.dtb.inst_misses                 0                       # ITB inst misses
system.switch_cpus1.dtb.read_hits                   0                       # DTB read hits
system.switch_cpus1.dtb.read_misses                 0                       # DTB read misses
system.switch_cpus1.dtb.write_hits                  0                       # DTB write hits
system.switch_cpus1.dtb.write_misses                0                       # DTB write misses
system.switch_cpus1.dtb.flush_tlb                   0                       # Number of times complete TLB was flushed
system.switch_cpus1.dtb.flush_tlb_mva               0                       # Number of times TLB was flushed by MVA
system.switch_cpus1.dtb.flush_tlb_mva_asid            0                       # Number of times TLB was flushed by MVA & ASID
system.switch_cpus1.dtb.flush_tlb_asid              0                       # Number of times TLB was flushed by ASID
system.switch_cpus1.dtb.flush_entries               0                       # Number of entries that have been flushed from TLB
system.switch_cpus1.dtb.align_faults                0                       # Number of TLB faults due to alignment restrictions
system.switch_cpus1.dtb.prefetch_faults             0                       # Number of TLB faults due to prefetch
system.switch_cpus1.dtb.domain_faults               0                       # Number of TLB faults due to domain restrictions
system.switch_cpus1.dtb.perms_faults                0                       # Number of TLB faults due to permissions restrictions
system.switch_cpus1.dtb.read_accesses               0                       # DTB read accesses
system.switch_cpus1.dtb.write_accesses              0                       # DTB write accesses
system.switch_cpus1.dtb.inst_accesses               0                       # ITB inst accesses
system.switch_cpus1.dtb.hits                        0                       # DTB hits
system.switch_cpus1.dtb.misses                      0                       # DTB misses
system.switch_cpus1.dtb.accesses                    0                       # DTB accesses
system.switch_cpus1.itb.inst_hits                   0                       # ITB inst hits
system.switch_cpus1.itb.inst_misses                 0                       # ITB inst misses
system.switch_cpus1.itb.read_hits                   0                       # DTB read hits
system.switch_cpus1.itb.read_misses                 0                       # DTB read misses
system.switch_cpus1.itb.write_hits                  0                       # DTB write hits
system.switch_cpus1.itb.write_misses                0                       # DTB write misses
system.switch_cpus1.itb.flush_tlb                   0                       # Number of times complete TLB was flushed
system.switch_cpus1.itb.flush_tlb_mva               0                       # Number of times TLB was flushed by MVA
system.switch_cpus1.itb.flush_tlb_mva_asid            0                       # Number of times TLB was flushed by MVA & ASID
system.switch_cpus1.itb.flush_tlb_asid              0                       # Number of times TLB was flushed by ASID
system.switch_cpus1.itb.flush_entries               0                       # Number of entries that have been flushed from TLB
system.switch_cpus1.itb.align_faults                0                       # Number of TLB faults due to alignment restrictions
system.switch_cpus1.itb.prefetch_faults             0                       # Number of TLB faults due to prefetch
system.switch_cpus1.itb.domain_faults               0                       # Number of TLB faults due to domain restrictions
system.switch_cpus1.itb.perms_faults                0                       # Number of TLB faults due to permissions restrictions
system.switch_cpus1.itb.read_accesses               0                       # DTB read accesses
system.switch_cpus1.itb.write_accesses              0                       # DTB write accesses
system.switch_cpus1.itb.inst_accesses               0                       # ITB inst accesses
system.switch_cpus1.itb.hits                        0                       # DTB hits
system.switch_cpus1.itb.misses                      0                       # DTB misses
system.switch_cpus1.itb.accesses                    0                       # DTB accesses
system.cpu1.workload.num_syscalls                   0                       # Number of system calls
system.switch_cpus1.numCycles               142143594                       # number of cpu cycles simulated
system.switch_cpus1.numWorkItemsStarted             0                       # number of work items this cpu started
system.switch_cpus1.numWorkItemsCompleted            0                       # number of work items this cpu completed
system.switch_cpus1.BPredUnit.lookups        23760330                       # Number of BP lookups
system.switch_cpus1.BPredUnit.condPredicted     19252780                       # Number of conditional branches predicted
system.switch_cpus1.BPredUnit.condIncorrect      2059209                       # Number of conditional branches incorrect
system.switch_cpus1.BPredUnit.BTBLookups      9642631                       # Number of BTB lookups
system.switch_cpus1.BPredUnit.BTBHits         9126967                       # Number of BTB hits
system.switch_cpus1.BPredUnit.BTBCorrect            0                       # Number of correct BTB predictions (this stat may not work properly.
system.switch_cpus1.BPredUnit.usedRAS         2540998                       # Number of times the RAS was used to get a target.
system.switch_cpus1.BPredUnit.RASInCorrect        91593                       # Number of incorrect RAS predictions.
system.switch_cpus1.fetch.icacheStallCycles    103723501                       # Number of cycles fetch is stalled on an Icache miss
system.switch_cpus1.fetch.Insts             130796049                       # Number of instructions fetch has processed
system.switch_cpus1.fetch.Branches           23760330                       # Number of branches that fetch encountered
system.switch_cpus1.fetch.predictedBranches     11667965                       # Number of branches that fetch has predicted taken
system.switch_cpus1.fetch.Cycles             28577207                       # Number of cycles fetch has run and was not squashing or blocked
system.switch_cpus1.fetch.SquashCycles        6683821                       # Number of cycles fetch has spent squashing
system.switch_cpus1.fetch.BlockedCycles       2808730                       # Number of cycles fetch has spent blocked
system.switch_cpus1.fetch.CacheLines         12105132                       # Number of cache lines fetched
system.switch_cpus1.fetch.IcacheSquashes      1664175                       # Number of outstanding Icache misses that were squashed
system.switch_cpus1.fetch.rateDist::samples    139687107                       # Number of instructions fetched each cycle (Total)
system.switch_cpus1.fetch.rateDist::mean     1.143170                       # Number of instructions fetched each cycle (Total)
system.switch_cpus1.fetch.rateDist::stdev     2.557003                       # Number of instructions fetched each cycle (Total)
system.switch_cpus1.fetch.rateDist::underflows            0      0.00%      0.00% # Number of instructions fetched each cycle (Total)
system.switch_cpus1.fetch.rateDist::0       111109900     79.54%     79.54% # Number of instructions fetched each cycle (Total)
system.switch_cpus1.fetch.rateDist::1         2687365      1.92%     81.47% # Number of instructions fetched each cycle (Total)
system.switch_cpus1.fetch.rateDist::2         2052852      1.47%     82.94% # Number of instructions fetched each cycle (Total)
system.switch_cpus1.fetch.rateDist::3         5031567      3.60%     86.54% # Number of instructions fetched each cycle (Total)
system.switch_cpus1.fetch.rateDist::4         1132038      0.81%     87.35% # Number of instructions fetched each cycle (Total)
system.switch_cpus1.fetch.rateDist::5         1625827      1.16%     88.51% # Number of instructions fetched each cycle (Total)
system.switch_cpus1.fetch.rateDist::6         1233353      0.88%     89.39% # Number of instructions fetched each cycle (Total)
system.switch_cpus1.fetch.rateDist::7          772748      0.55%     89.95% # Number of instructions fetched each cycle (Total)
system.switch_cpus1.fetch.rateDist::8        14041457     10.05%    100.00% # Number of instructions fetched each cycle (Total)
system.switch_cpus1.fetch.rateDist::overflows            0      0.00%    100.00% # Number of instructions fetched each cycle (Total)
system.switch_cpus1.fetch.rateDist::min_value            0                       # Number of instructions fetched each cycle (Total)
system.switch_cpus1.fetch.rateDist::max_value            8                       # Number of instructions fetched each cycle (Total)
system.switch_cpus1.fetch.rateDist::total    139687107                       # Number of instructions fetched each cycle (Total)
system.switch_cpus1.fetch.branchRate         0.167157                       # Number of branch fetches per cycle
system.switch_cpus1.fetch.rate               0.920168                       # Number of inst fetches per cycle
system.switch_cpus1.decode.IdleCycles       102511779                       # Number of cycles decode is idle
system.switch_cpus1.decode.BlockedCycles      4389743                       # Number of cycles decode is blocked
system.switch_cpus1.decode.RunCycles         28138636                       # Number of cycles decode is running
system.switch_cpus1.decode.UnblockCycles       111283                       # Number of cycles decode is unblocking
system.switch_cpus1.decode.SquashCycles       4535657                       # Number of cycles decode is squashing
system.switch_cpus1.decode.BranchResolved      4102485                       # Number of times decode resolved a branch
system.switch_cpus1.decode.BranchMispred        42018                       # Number of times decode detected a branch misprediction
system.switch_cpus1.decode.DecodedInsts     157772809                       # Number of instructions handled by decode
system.switch_cpus1.decode.SquashedInsts        77339                       # Number of squashed instructions handled by decode
system.switch_cpus1.rename.SquashCycles       4535657                       # Number of cycles rename is squashing
system.switch_cpus1.rename.IdleCycles       103376994                       # Number of cycles rename is idle
system.switch_cpus1.rename.BlockCycles        1209573                       # Number of cycles rename is blocking
system.switch_cpus1.rename.serializeStallCycles      1736440                       # count of cycles rename stalled for serializing inst
system.switch_cpus1.rename.RunCycles         27375692                       # Number of cycles rename is running
system.switch_cpus1.rename.UnblockCycles      1452743                       # Number of cycles rename is unblocking
system.switch_cpus1.rename.RenamedInsts     156151638                       # Number of instructions processed by rename
system.switch_cpus1.rename.ROBFullEvents        14180                       # Number of times rename has blocked due to ROB full
system.switch_cpus1.rename.IQFullEvents        269530                       # Number of times rename has blocked due to IQ full
system.switch_cpus1.rename.LSQFullEvents       611299                       # Number of times rename has blocked due to LSQ full
system.switch_cpus1.rename.FullRegisterEvents       137072                       # Number of times there has been no free registers
system.switch_cpus1.rename.RenamedOperands    219386395                       # Number of destination operands rename has renamed
system.switch_cpus1.rename.RenameLookups    727280363                       # Number of register rename lookups that rename has made
system.switch_cpus1.rename.int_rename_lookups    727280363                       # Number of integer rename lookups
system.switch_cpus1.rename.CommittedMaps    173205458                       # Number of HB maps that are committed
system.switch_cpus1.rename.UndoneMaps        46180928                       # Number of HB maps that are undone due to squashing
system.switch_cpus1.rename.serializingInsts        39086                       # count of serializing insts renamed
system.switch_cpus1.rename.tempSerializingInsts        22307                       # count of temporary serializing insts renamed
system.switch_cpus1.rename.skidInsts          5038381                       # count of insts added to the skid buffer
system.switch_cpus1.memDep0.insertedLoads     15054367                       # Number of loads inserted to the mem dependence unit.
system.switch_cpus1.memDep0.insertedStores      7359147                       # Number of stores inserted to the mem dependence unit.
system.switch_cpus1.memDep0.conflictingLoads       122723                       # Number of conflicting loads.
system.switch_cpus1.memDep0.conflictingStores      1630834                       # Number of conflicting stores.
system.switch_cpus1.iq.iqInstsAdded         153387580                       # Number of instructions added to the IQ (excludes non-spec)
system.switch_cpus1.iq.iqNonSpecInstsAdded        39072                       # Number of non-speculative instructions added to the IQ
system.switch_cpus1.iq.iqInstsIssued        142499306                       # Number of instructions issued
system.switch_cpus1.iq.iqSquashedInstsIssued       191518                       # Number of squashed instructions issued
system.switch_cpus1.iq.iqSquashedInstsExamined     28001830                       # Number of squashed instructions iterated over during squash; mainly for profiling
system.switch_cpus1.iq.iqSquashedOperandsExamined     60506119                       # Number of squashed operands that are examined and possibly removed from graph
system.switch_cpus1.iq.iqSquashedNonSpecRemoved         5516                       # Number of squashed non-spec instructions that were removed
system.switch_cpus1.iq.issued_per_cycle::samples    139687107                       # Number of insts issued each cycle
system.switch_cpus1.iq.issued_per_cycle::mean     1.020132                       # Number of insts issued each cycle
system.switch_cpus1.iq.issued_per_cycle::stdev     1.566163                       # Number of insts issued each cycle
system.switch_cpus1.iq.issued_per_cycle::underflows            0      0.00%      0.00% # Number of insts issued each cycle
system.switch_cpus1.iq.issued_per_cycle::0     80018375     57.28%     57.28% # Number of insts issued each cycle
system.switch_cpus1.iq.issued_per_cycle::1     25068876     17.95%     75.23% # Number of insts issued each cycle
system.switch_cpus1.iq.issued_per_cycle::2     11710800      8.38%     83.61% # Number of insts issued each cycle
system.switch_cpus1.iq.issued_per_cycle::3      8590223      6.15%     89.76% # Number of insts issued each cycle
system.switch_cpus1.iq.issued_per_cycle::4      7643590      5.47%     95.24% # Number of insts issued each cycle
system.switch_cpus1.iq.issued_per_cycle::5      3034977      2.17%     97.41% # Number of insts issued each cycle
system.switch_cpus1.iq.issued_per_cycle::6      3003541      2.15%     99.56% # Number of insts issued each cycle
system.switch_cpus1.iq.issued_per_cycle::7       466130      0.33%     99.89% # Number of insts issued each cycle
system.switch_cpus1.iq.issued_per_cycle::8       150595      0.11%    100.00% # Number of insts issued each cycle
system.switch_cpus1.iq.issued_per_cycle::overflows            0      0.00%    100.00% # Number of insts issued each cycle
system.switch_cpus1.iq.issued_per_cycle::min_value            0                       # Number of insts issued each cycle
system.switch_cpus1.iq.issued_per_cycle::max_value            8                       # Number of insts issued each cycle
system.switch_cpus1.iq.issued_per_cycle::total    139687107                       # Number of insts issued each cycle
system.switch_cpus1.iq.fu_full::No_OpClass            0      0.00%      0.00% # attempts to use FU when none available
system.switch_cpus1.iq.fu_full::IntAlu         573138     68.76%     68.76% # attempts to use FU when none available
system.switch_cpus1.iq.fu_full::IntMult             0      0.00%     68.76% # attempts to use FU when none available
system.switch_cpus1.iq.fu_full::IntDiv              0      0.00%     68.76% # attempts to use FU when none available
system.switch_cpus1.iq.fu_full::FloatAdd            0      0.00%     68.76% # attempts to use FU when none available
system.switch_cpus1.iq.fu_full::FloatCmp            0      0.00%     68.76% # attempts to use FU when none available
system.switch_cpus1.iq.fu_full::FloatCvt            0      0.00%     68.76% # attempts to use FU when none available
system.switch_cpus1.iq.fu_full::FloatMult            0      0.00%     68.76% # attempts to use FU when none available
system.switch_cpus1.iq.fu_full::FloatDiv            0      0.00%     68.76% # attempts to use FU when none available
system.switch_cpus1.iq.fu_full::FloatSqrt            0      0.00%     68.76% # attempts to use FU when none available
system.switch_cpus1.iq.fu_full::SimdAdd             0      0.00%     68.76% # attempts to use FU when none available
system.switch_cpus1.iq.fu_full::SimdAddAcc            0      0.00%     68.76% # attempts to use FU when none available
system.switch_cpus1.iq.fu_full::SimdAlu             0      0.00%     68.76% # attempts to use FU when none available
system.switch_cpus1.iq.fu_full::SimdCmp             0      0.00%     68.76% # attempts to use FU when none available
system.switch_cpus1.iq.fu_full::SimdCvt             0      0.00%     68.76% # attempts to use FU when none available
system.switch_cpus1.iq.fu_full::SimdMisc            0      0.00%     68.76% # attempts to use FU when none available
system.switch_cpus1.iq.fu_full::SimdMult            0      0.00%     68.76% # attempts to use FU when none available
system.switch_cpus1.iq.fu_full::SimdMultAcc            0      0.00%     68.76% # attempts to use FU when none available
system.switch_cpus1.iq.fu_full::SimdShift            0      0.00%     68.76% # attempts to use FU when none available
system.switch_cpus1.iq.fu_full::SimdShiftAcc            0      0.00%     68.76% # attempts to use FU when none available
system.switch_cpus1.iq.fu_full::SimdSqrt            0      0.00%     68.76% # attempts to use FU when none available
system.switch_cpus1.iq.fu_full::SimdFloatAdd            0      0.00%     68.76% # attempts to use FU when none available
system.switch_cpus1.iq.fu_full::SimdFloatAlu            0      0.00%     68.76% # attempts to use FU when none available
system.switch_cpus1.iq.fu_full::SimdFloatCmp            0      0.00%     68.76% # attempts to use FU when none available
system.switch_cpus1.iq.fu_full::SimdFloatCvt            0      0.00%     68.76% # attempts to use FU when none available
system.switch_cpus1.iq.fu_full::SimdFloatDiv            0      0.00%     68.76% # attempts to use FU when none available
system.switch_cpus1.iq.fu_full::SimdFloatMisc            0      0.00%     68.76% # attempts to use FU when none available
system.switch_cpus1.iq.fu_full::SimdFloatMult            0      0.00%     68.76% # attempts to use FU when none available
system.switch_cpus1.iq.fu_full::SimdFloatMultAcc            0      0.00%     68.76% # attempts to use FU when none available
system.switch_cpus1.iq.fu_full::SimdFloatSqrt            0      0.00%     68.76% # attempts to use FU when none available
system.switch_cpus1.iq.fu_full::MemRead        115376     13.84%     82.60% # attempts to use FU when none available
system.switch_cpus1.iq.fu_full::MemWrite       144991     17.40%    100.00% # attempts to use FU when none available
system.switch_cpus1.iq.fu_full::IprAccess            0      0.00%    100.00% # attempts to use FU when none available
system.switch_cpus1.iq.fu_full::InstPrefetch            0      0.00%    100.00% # attempts to use FU when none available
system.switch_cpus1.iq.FU_type_0::No_OpClass            0      0.00%      0.00% # Type of FU issued
system.switch_cpus1.iq.FU_type_0::IntAlu    119596505     83.93%     83.93% # Type of FU issued
system.switch_cpus1.iq.FU_type_0::IntMult      2142633      1.50%     85.43% # Type of FU issued
system.switch_cpus1.iq.FU_type_0::IntDiv            0      0.00%     85.43% # Type of FU issued
system.switch_cpus1.iq.FU_type_0::FloatAdd            0      0.00%     85.43% # Type of FU issued
system.switch_cpus1.iq.FU_type_0::FloatCmp            0      0.00%     85.43% # Type of FU issued
system.switch_cpus1.iq.FU_type_0::FloatCvt            0      0.00%     85.43% # Type of FU issued
system.switch_cpus1.iq.FU_type_0::FloatMult            0      0.00%     85.43% # Type of FU issued
system.switch_cpus1.iq.FU_type_0::FloatDiv            0      0.00%     85.43% # Type of FU issued
system.switch_cpus1.iq.FU_type_0::FloatSqrt            0      0.00%     85.43% # Type of FU issued
system.switch_cpus1.iq.FU_type_0::SimdAdd            0      0.00%     85.43% # Type of FU issued
system.switch_cpus1.iq.FU_type_0::SimdAddAcc            0      0.00%     85.43% # Type of FU issued
system.switch_cpus1.iq.FU_type_0::SimdAlu            0      0.00%     85.43% # Type of FU issued
system.switch_cpus1.iq.FU_type_0::SimdCmp            0      0.00%     85.43% # Type of FU issued
system.switch_cpus1.iq.FU_type_0::SimdCvt            0      0.00%     85.43% # Type of FU issued
system.switch_cpus1.iq.FU_type_0::SimdMisc            0      0.00%     85.43% # Type of FU issued
system.switch_cpus1.iq.FU_type_0::SimdMult            0      0.00%     85.43% # Type of FU issued
system.switch_cpus1.iq.FU_type_0::SimdMultAcc            0      0.00%     85.43% # Type of FU issued
system.switch_cpus1.iq.FU_type_0::SimdShift            0      0.00%     85.43% # Type of FU issued
system.switch_cpus1.iq.FU_type_0::SimdShiftAcc            0      0.00%     85.43% # Type of FU issued
system.switch_cpus1.iq.FU_type_0::SimdSqrt            0      0.00%     85.43% # Type of FU issued
system.switch_cpus1.iq.FU_type_0::SimdFloatAdd            0      0.00%     85.43% # Type of FU issued
system.switch_cpus1.iq.FU_type_0::SimdFloatAlu            0      0.00%     85.43% # Type of FU issued
system.switch_cpus1.iq.FU_type_0::SimdFloatCmp            0      0.00%     85.43% # Type of FU issued
system.switch_cpus1.iq.FU_type_0::SimdFloatCvt            0      0.00%     85.43% # Type of FU issued
system.switch_cpus1.iq.FU_type_0::SimdFloatDiv            0      0.00%     85.43% # Type of FU issued
system.switch_cpus1.iq.FU_type_0::SimdFloatMisc        16777      0.01%     85.44% # Type of FU issued
system.switch_cpus1.iq.FU_type_0::SimdFloatMult            0      0.00%     85.44% # Type of FU issued
system.switch_cpus1.iq.FU_type_0::SimdFloatMultAcc            0      0.00%     85.44% # Type of FU issued
system.switch_cpus1.iq.FU_type_0::SimdFloatSqrt            0      0.00%     85.44% # Type of FU issued
system.switch_cpus1.iq.FU_type_0::MemRead     13453941      9.44%     94.88% # Type of FU issued
system.switch_cpus1.iq.FU_type_0::MemWrite      7289450      5.12%    100.00% # Type of FU issued
system.switch_cpus1.iq.FU_type_0::IprAccess            0      0.00%    100.00% # Type of FU issued
system.switch_cpus1.iq.FU_type_0::InstPrefetch            0      0.00%    100.00% # Type of FU issued
system.switch_cpus1.iq.FU_type_0::total     142499306                       # Type of FU issued
system.switch_cpus1.iq.rate                  1.002502                       # Inst issue rate
system.switch_cpus1.iq.fu_busy_cnt             833505                       # FU busy when requested
system.switch_cpus1.iq.fu_busy_rate          0.005849                       # FU busy rate (busy events/executed inst)
system.switch_cpus1.iq.int_inst_queue_reads    425710742                       # Number of integer instruction queue reads
system.switch_cpus1.iq.int_inst_queue_writes    181428911                       # Number of integer instruction queue writes
system.switch_cpus1.iq.int_inst_queue_wakeup_accesses    138918831                       # Number of integer instruction queue wakeup accesses
system.switch_cpus1.iq.fp_inst_queue_reads            0                       # Number of floating instruction queue reads
system.switch_cpus1.iq.fp_inst_queue_writes            0                       # Number of floating instruction queue writes
system.switch_cpus1.iq.fp_inst_queue_wakeup_accesses            0                       # Number of floating instruction queue wakeup accesses
system.switch_cpus1.iq.int_alu_accesses     143332811                       # Number of integer alu accesses
system.switch_cpus1.iq.fp_alu_accesses              0                       # Number of floating point alu accesses
system.switch_cpus1.iew.lsq.thread0.forwLoads       347304                       # Number of loads that had data forwarded from stores
system.switch_cpus1.iew.lsq.thread0.invAddrLoads            0                       # Number of loads ignored due to an invalid address
system.switch_cpus1.iew.lsq.thread0.squashedLoads      3655282                       # Number of loads squashed
system.switch_cpus1.iew.lsq.thread0.ignoredResponses         1065                       # Number of memory responses ignored because the instruction is squashed
system.switch_cpus1.iew.lsq.thread0.memOrderViolation          429                       # Number of memory ordering violations
system.switch_cpus1.iew.lsq.thread0.squashedStores       230091                       # Number of stores squashed
system.switch_cpus1.iew.lsq.thread0.invAddrSwpfs            0                       # Number of software prefetches ignored due to an invalid address
system.switch_cpus1.iew.lsq.thread0.blockedLoads            0                       # Number of blocked loads due to partial load-store forwarding
system.switch_cpus1.iew.lsq.thread0.rescheduledLoads            0                       # Number of loads that were rescheduled
system.switch_cpus1.iew.lsq.thread0.cacheBlocked            0                       # Number of times an access to memory failed due to the cache being blocked
system.switch_cpus1.iew.iewIdleCycles               0                       # Number of cycles IEW is idle
system.switch_cpus1.iew.iewSquashCycles       4535657                       # Number of cycles IEW is squashing
system.switch_cpus1.iew.iewBlockCycles         770114                       # Number of cycles IEW is blocking
system.switch_cpus1.iew.iewUnblockCycles        91378                       # Number of cycles IEW is unblocking
system.switch_cpus1.iew.iewDispatchedInsts    153426652                       # Number of instructions dispatched to IQ
system.switch_cpus1.iew.iewDispSquashedInsts        49394                       # Number of squashed instructions skipped by dispatch
system.switch_cpus1.iew.iewDispLoadInsts     15054367                       # Number of dispatched load instructions
system.switch_cpus1.iew.iewDispStoreInsts      7359147                       # Number of dispatched store instructions
system.switch_cpus1.iew.iewDispNonSpecInsts        22294                       # Number of dispatched non-speculative instructions
system.switch_cpus1.iew.iewIQFullEvents         79729                       # Number of times the IQ has become full, causing a stall
system.switch_cpus1.iew.iewLSQFullEvents            0                       # Number of times the LSQ has become full, causing a stall
system.switch_cpus1.iew.memOrderViolationEvents          429                       # Number of memory order violations
system.switch_cpus1.iew.predictedTakenIncorrect      1122853                       # Number of branches that were predicted taken incorrectly
system.switch_cpus1.iew.predictedNotTakenIncorrect      1172301                       # Number of branches that were predicted not taken incorrectly
system.switch_cpus1.iew.branchMispredicts      2295154                       # Number of branch mispredicts detected at execute
system.switch_cpus1.iew.iewExecutedInsts    139934592                       # Number of executed instructions
system.switch_cpus1.iew.iewExecLoadInsts     12929645                       # Number of load instructions executed
system.switch_cpus1.iew.iewExecSquashedInsts      2564714                       # Number of squashed instructions skipped in execute
system.switch_cpus1.iew.exec_swp                    0                       # number of swp insts executed
system.switch_cpus1.iew.exec_nop                    0                       # number of nop insts executed
system.switch_cpus1.iew.exec_refs            20217317                       # number of memory reference insts executed
system.switch_cpus1.iew.exec_branches        19873054                       # Number of branches executed
system.switch_cpus1.iew.exec_stores           7287672                       # Number of stores executed
system.switch_cpus1.iew.exec_rate            0.984459                       # Inst execution rate
system.switch_cpus1.iew.wb_sent             139101204                       # cumulative count of insts sent to commit
system.switch_cpus1.iew.wb_count            138918831                       # cumulative count of insts written-back
system.switch_cpus1.iew.wb_producers         83309181                       # num instructions producing a value
system.switch_cpus1.iew.wb_consumers        230779862                       # num instructions consuming a value
system.switch_cpus1.iew.wb_penalized                0                       # number of instrctions required to write to 'other' IQ
system.switch_cpus1.iew.wb_rate              0.977313                       # insts written-back per cycle
system.switch_cpus1.iew.wb_fanout            0.360990                       # average fanout of values written-back
system.switch_cpus1.iew.wb_penalized_rate            0                       # fraction of instructions written-back that wrote to 'other' IQ
system.switch_cpus1.commit.commitCommittedInsts    101469998                       # The number of committed instructions
system.switch_cpus1.commit.commitCommittedOps    124614754                       # The number of committed instructions
system.switch_cpus1.commit.commitSquashedInsts     28813015                       # The number of squashed insts skipped by commit
system.switch_cpus1.commit.commitNonSpecStalls        33556                       # The number of times commit has been forced to stall to communicate backwards
system.switch_cpus1.commit.branchMispredicts      2063872                       # The number of times a branch was mispredicted
system.switch_cpus1.commit.committed_per_cycle::samples    135151450                       # Number of insts commited each cycle
[...]
system.cpu3.icache.ReadReq_miss_latency::total      3012214                       # number of ReadReq miss cycles
system.cpu3.icache.demand_miss_latency::switch_cpus3.inst      3012214                       # number of demand (read+write) miss cycles
system.cpu3.icache.demand_miss_latency::total      3012214                       # number of demand (read+write) miss cycles
system.cpu3.icache.overall_miss_latency::switch_cpus3.inst      3012214                       # number of overall miss cycles
system.cpu3.icache.overall_miss_latency::total      3012214                       # number of overall miss cycles
system.cpu3.icache.ReadReq_accesses::switch_cpus3.inst     12467207                       # number of ReadReq accesses(hits+misses)
system.cpu3.icache.ReadReq_accesses::total     12467207                       # number of ReadReq accesses(hits+misses)
system.cpu3.icache.demand_accesses::switch_cpus3.inst     12467207                       # number of demand (read+write) accesses
system.cpu3.icache.demand_accesses::total     12467207                       # number of demand (read+write) accesses
system.cpu3.icache.overall_accesses::switch_cpus3.inst     12467207                       # number of overall (read+write) accesses
system.cpu3.icache.overall_accesses::total     12467207                       # number of overall (read+write) accesses
system.cpu3.icache.ReadReq_miss_rate::switch_cpus3.inst     0.000001                       # miss rate for ReadReq accesses
system.cpu3.icache.ReadReq_miss_rate::total     0.000001                       # miss rate for ReadReq accesses
system.cpu3.icache.demand_miss_rate::switch_cpus3.inst     0.000001                       # miss rate for demand accesses
system.cpu3.icache.demand_miss_rate::total     0.000001                       # miss rate for demand accesses
system.cpu3.icache.overall_miss_rate::switch_cpus3.inst     0.000001                       # miss rate for overall accesses
system.cpu3.icache.overall_miss_rate::total     0.000001                       # miss rate for overall accesses
system.cpu3.icache.ReadReq_avg_miss_latency::switch_cpus3.inst 177189.058824                       # average ReadReq miss latency
system.cpu3.icache.ReadReq_avg_miss_latency::total 177189.058824                       # average ReadReq miss latency
system.cpu3.icache.demand_avg_miss_latency::switch_cpus3.inst 177189.058824                       # average overall miss latency
system.cpu3.icache.demand_avg_miss_latency::total 177189.058824                       # average overall miss latency
system.cpu3.icache.overall_avg_miss_latency::switch_cpus3.inst 177189.058824                       # average overall miss latency
system.cpu3.icache.overall_avg_miss_latency::total 177189.058824                       # average overall miss latency
system.cpu3.icache.blocked_cycles::no_mshrs            0                       # number of cycles access was blocked
system.cpu3.icache.blocked_cycles::no_targets            0                       # number of cycles access was blocked
system.cpu3.icache.blocked::no_mshrs                0                       # number of cycles access was blocked
system.cpu3.icache.blocked::no_targets              0                       # number of cycles access was blocked
system.cpu3.icache.avg_blocked_cycles::no_mshrs          nan                       # average number of cycles each access was blocked
system.cpu3.icache.avg_blocked_cycles::no_targets          nan                       # average number of cycles each access was blocked
system.cpu3.icache.fast_writes                      0                       # number of fast writes performed
system.cpu3.icache.cache_copies                     0                       # number of cache copies performed
system.cpu3.icache.ReadReq_mshr_hits::switch_cpus3.inst            1                       # number of ReadReq MSHR hits
system.cpu3.icache.ReadReq_mshr_hits::total            1                       # number of ReadReq MSHR hits
system.cpu3.icache.demand_mshr_hits::switch_cpus3.inst            1                       # number of demand (read+write) MSHR hits
system.cpu3.icache.demand_mshr_hits::total            1                       # number of demand (read+write) MSHR hits
system.cpu3.icache.overall_mshr_hits::switch_cpus3.inst            1                       # number of overall MSHR hits
system.cpu3.icache.overall_mshr_hits::total            1                       # number of overall MSHR hits
system.cpu3.icache.ReadReq_mshr_misses::switch_cpus3.inst           16                       # number of ReadReq MSHR misses
system.cpu3.icache.ReadReq_mshr_misses::total           16                       # number of ReadReq MSHR misses
system.cpu3.icache.demand_mshr_misses::switch_cpus3.inst           16                       # number of demand (read+write) MSHR misses
system.cpu3.icache.demand_mshr_misses::total           16                       # number of demand (read+write) MSHR misses
system.cpu3.icache.overall_mshr_misses::switch_cpus3.inst           16                       # number of overall MSHR misses
system.cpu3.icache.overall_mshr_misses::total           16                       # number of overall MSHR misses
system.cpu3.icache.ReadReq_mshr_miss_latency::switch_cpus3.inst      2761750                       # number of ReadReq MSHR miss cycles
system.cpu3.icache.ReadReq_mshr_miss_latency::total      2761750                       # number of ReadReq MSHR miss cycles
system.cpu3.icache.demand_mshr_miss_latency::switch_cpus3.inst      2761750                       # number of demand (read+write) MSHR miss cycles
system.cpu3.icache.demand_mshr_miss_latency::total      2761750                       # number of demand (read+write) MSHR miss cycles
system.cpu3.icache.overall_mshr_miss_latency::switch_cpus3.inst      2761750                       # number of overall MSHR miss cycles
system.cpu3.icache.overall_mshr_miss_latency::total      2761750                       # number of overall MSHR miss cycles
system.cpu3.icache.ReadReq_mshr_miss_rate::switch_cpus3.inst     0.000001                       # mshr miss rate for ReadReq accesses
system.cpu3.icache.ReadReq_mshr_miss_rate::total     0.000001                       # mshr miss rate for ReadReq accesses
system.cpu3.icache.demand_mshr_miss_rate::switch_cpus3.inst     0.000001                       # mshr miss rate for demand accesses
system.cpu3.icache.demand_mshr_miss_rate::total     0.000001                       # mshr miss rate for demand accesses
system.cpu3.icache.overall_mshr_miss_rate::switch_cpus3.inst     0.000001                       # mshr miss rate for overall accesses
system.cpu3.icache.overall_mshr_miss_rate::total     0.000001                       # mshr miss rate for overall accesses
system.cpu3.icache.ReadReq_avg_mshr_miss_latency::switch_cpus3.inst 172609.375000                       # average ReadReq mshr miss latency
system.cpu3.icache.ReadReq_avg_mshr_miss_latency::total 172609.375000                       # average ReadReq mshr miss latency
system.cpu3.icache.demand_avg_mshr_miss_latency::switch_cpus3.inst 172609.375000                       # average overall mshr miss latency
system.cpu3.icache.demand_avg_mshr_miss_latency::total 172609.375000                       # average overall mshr miss latency
system.cpu3.icache.overall_avg_mshr_miss_latency::switch_cpus3.inst 172609.375000                       # average overall mshr miss latency
system.cpu3.icache.overall_avg_mshr_miss_latency::total 172609.375000                       # average overall mshr miss latency
system.cpu3.icache.no_allocate_misses               0                       # Number of misses that were no-allocate
system.cpu3.dcache.replacements                 33398                       # number of replacements
system.cpu3.dcache.tagsinuse                      256                       # Cycle average of tags in use
system.cpu3.dcache.total_refs               163535655                       # Total number of references to valid blocks.
system.cpu3.dcache.sampled_refs                 33654                       # Sample count of references to valid blocks.
system.cpu3.dcache.avg_refs               4859.322963                       # Average number of references to valid blocks.
system.cpu3.dcache.warmup_cycle                     0                       # Cycle when the warmup percentage was hit.
system.cpu3.dcache.occ_blocks::switch_cpus3.data   231.009328                       # Average occupied blocks per requestor
system.cpu3.dcache.occ_blocks::cpu3.data    24.990672                       # Average occupied blocks per requestor
system.cpu3.dcache.occ_percent::switch_cpus3.data     0.902380                       # Average percentage of cache occupancy
system.cpu3.dcache.occ_percent::cpu3.data     0.097620                       # Average percentage of cache occupancy
system.cpu3.dcache.occ_percent::total               1                       # Average percentage of cache occupancy
system.cpu3.dcache.ReadReq_hits::switch_cpus3.data      9186175                       # number of ReadReq hits
system.cpu3.dcache.ReadReq_hits::total        9186175                       # number of ReadReq hits
system.cpu3.dcache.WriteReq_hits::switch_cpus3.data      7174095                       # number of WriteReq hits
system.cpu3.dcache.WriteReq_hits::total       7174095                       # number of WriteReq hits
system.cpu3.dcache.LoadLockedReq_hits::switch_cpus3.data        17353                       # number of LoadLockedReq hits
system.cpu3.dcache.LoadLockedReq_hits::total        17353                       # number of LoadLockedReq hits
system.cpu3.dcache.StoreCondReq_hits::switch_cpus3.data        17330                       # number of StoreCondReq hits
system.cpu3.dcache.StoreCondReq_hits::total        17330                       # number of StoreCondReq hits
system.cpu3.dcache.demand_hits::switch_cpus3.data     16360270                       # number of demand (read+write) hits
system.cpu3.dcache.demand_hits::total        16360270                       # number of demand (read+write) hits
system.cpu3.dcache.overall_hits::switch_cpus3.data     16360270                       # number of overall hits
system.cpu3.dcache.overall_hits::total       16360270                       # number of overall hits
system.cpu3.dcache.ReadReq_misses::switch_cpus3.data        85238                       # number of ReadReq misses
system.cpu3.dcache.ReadReq_misses::total        85238                       # number of ReadReq misses
system.cpu3.dcache.demand_misses::switch_cpus3.data        85238                       # number of demand (read+write) misses
system.cpu3.dcache.demand_misses::total         85238                       # number of demand (read+write) misses
system.cpu3.dcache.overall_misses::switch_cpus3.data        85238                       # number of overall misses
system.cpu3.dcache.overall_misses::total        85238                       # number of overall misses
system.cpu3.dcache.ReadReq_miss_latency::switch_cpus3.data   7419384111                       # number of ReadReq miss cycles
system.cpu3.dcache.ReadReq_miss_latency::total   7419384111                       # number of ReadReq miss cycles
system.cpu3.dcache.demand_miss_latency::switch_cpus3.data   7419384111                       # number of demand (read+write) miss cycles
system.cpu3.dcache.demand_miss_latency::total   7419384111                       # number of demand (read+write) miss cycles
system.cpu3.dcache.overall_miss_latency::switch_cpus3.data   7419384111                       # number of overall miss cycles
system.cpu3.dcache.overall_miss_latency::total   7419384111                       # number of overall miss cycles
system.cpu3.dcache.ReadReq_accesses::switch_cpus3.data      9271413                       # number of ReadReq accesses(hits+misses)
system.cpu3.dcache.ReadReq_accesses::total      9271413                       # number of ReadReq accesses(hits+misses)
system.cpu3.dcache.WriteReq_accesses::switch_cpus3.data      7174095                       # number of WriteReq accesses(hits+misses)
system.cpu3.dcache.WriteReq_accesses::total      7174095                       # number of WriteReq accesses(hits+misses)
system.cpu3.dcache.LoadLockedReq_accesses::switch_cpus3.data        17353                       # number of LoadLockedReq accesses(hits+misses)
system.cpu3.dcache.LoadLockedReq_accesses::total        17353                       # number of LoadLockedReq accesses(hits+misses)
system.cpu3.dcache.StoreCondReq_accesses::switch_cpus3.data        17330                       # number of StoreCondReq accesses(hits+misses)
system.cpu3.dcache.StoreCondReq_accesses::total        17330                       # number of StoreCondReq accesses(hits+misses)
system.cpu3.dcache.demand_accesses::switch_cpus3.data     16445508                       # number of demand (read+write) accesses
system.cpu3.dcache.demand_accesses::total     16445508                       # number of demand (read+write) accesses
system.cpu3.dcache.overall_accesses::switch_cpus3.data     16445508                       # number of overall (read+write) accesses
system.cpu3.dcache.overall_accesses::total     16445508                       # number of overall (read+write) accesses
system.cpu3.dcache.ReadReq_miss_rate::switch_cpus3.data     0.009194                       # miss rate for ReadReq accesses
system.cpu3.dcache.ReadReq_miss_rate::total     0.009194                       # miss rate for ReadReq accesses
system.cpu3.dcache.demand_miss_rate::switch_cpus3.data     0.005183                       # miss rate for demand accesses
system.cpu3.dcache.demand_miss_rate::total     0.005183                       # miss rate for demand accesses
system.cpu3.dcache.overall_miss_rate::switch_cpus3.data     0.005183                       # miss rate for overall accesses
system.cpu3.dcache.overall_miss_rate::total     0.005183                       # miss rate for overall accesses
system.cpu3.dcache.ReadReq_avg_miss_latency::switch_cpus3.data 87043.151071                       # average ReadReq miss latency
system.cpu3.dcache.ReadReq_avg_miss_latency::total 87043.151071                       # average ReadReq miss latency
system.cpu3.dcache.demand_avg_miss_latency::switch_cpus3.data 87043.151071                       # average overall miss latency
system.cpu3.dcache.demand_avg_miss_latency::total 87043.151071                       # average overall miss latency
system.cpu3.dcache.overall_avg_miss_latency::switch_cpus3.data 87043.151071                       # average overall miss latency
system.cpu3.dcache.overall_avg_miss_latency::total 87043.151071                       # average overall miss latency
system.cpu3.dcache.blocked_cycles::no_mshrs            0                       # number of cycles access was blocked
system.cpu3.dcache.blocked_cycles::no_targets            0                       # number of cycles access was blocked
system.cpu3.dcache.blocked::no_mshrs                0                       # number of cycles access was blocked
system.cpu3.dcache.blocked::no_targets              0                       # number of cycles access was blocked
system.cpu3.dcache.avg_blocked_cycles::no_mshrs          nan                       # average number of cycles each access was blocked
system.cpu3.dcache.avg_blocked_cycles::no_targets          nan                       # average number of cycles each access was blocked
system.cpu3.dcache.fast_writes                      0                       # number of fast writes performed
system.cpu3.dcache.cache_copies                     0                       # number of cache copies performed
system.cpu3.dcache.writebacks::writebacks        11007                       # number of writebacks
system.cpu3.dcache.writebacks::total            11007                       # number of writebacks
system.cpu3.dcache.ReadReq_mshr_hits::switch_cpus3.data        51840                       # number of ReadReq MSHR hits
system.cpu3.dcache.ReadReq_mshr_hits::total        51840                       # number of ReadReq MSHR hits
system.cpu3.dcache.demand_mshr_hits::switch_cpus3.data        51840                       # number of demand (read+write) MSHR hits
system.cpu3.dcache.demand_mshr_hits::total        51840                       # number of demand (read+write) MSHR hits
system.cpu3.dcache.overall_mshr_hits::switch_cpus3.data        51840                       # number of overall MSHR hits
system.cpu3.dcache.overall_mshr_hits::total        51840                       # number of overall MSHR hits
system.cpu3.dcache.ReadReq_mshr_misses::switch_cpus3.data        33398                       # number of ReadReq MSHR misses
system.cpu3.dcache.ReadReq_mshr_misses::total        33398                       # number of ReadReq MSHR misses
system.cpu3.dcache.demand_mshr_misses::switch_cpus3.data        33398                       # number of demand (read+write) MSHR misses
system.cpu3.dcache.demand_mshr_misses::total        33398                       # number of demand (read+write) MSHR misses
system.cpu3.dcache.overall_mshr_misses::switch_cpus3.data        33398                       # number of overall MSHR misses
system.cpu3.dcache.overall_mshr_misses::total        33398                       # number of overall MSHR misses
system.cpu3.dcache.ReadReq_mshr_miss_latency::switch_cpus3.data   2546711044                       # number of ReadReq MSHR miss cycles
system.cpu3.dcache.ReadReq_mshr_miss_latency::total   2546711044                       # number of ReadReq MSHR miss cycles
system.cpu3.dcache.demand_mshr_miss_latency::switch_cpus3.data   2546711044                       # number of demand (read+write) MSHR miss cycles
system.cpu3.dcache.demand_mshr_miss_latency::total   2546711044                       # number of demand (read+write) MSHR miss cycles
system.cpu3.dcache.overall_mshr_miss_latency::switch_cpus3.data   2546711044                       # number of overall MSHR miss cycles
system.cpu3.dcache.overall_mshr_miss_latency::total   2546711044                       # number of overall MSHR miss cycles
system.cpu3.dcache.ReadReq_mshr_miss_rate::switch_cpus3.data     0.003602                       # mshr miss rate for ReadReq accesses
system.cpu3.dcache.ReadReq_mshr_miss_rate::total     0.003602                       # mshr miss rate for ReadReq accesses
system.cpu3.dcache.demand_mshr_miss_rate::switch_cpus3.data     0.002031                       # mshr miss rate for demand accesses
system.cpu3.dcache.demand_mshr_miss_rate::total     0.002031                       # mshr miss rate for demand accesses
system.cpu3.dcache.overall_mshr_miss_rate::switch_cpus3.data     0.002031                       # mshr miss rate for overall accesses
system.cpu3.dcache.overall_mshr_miss_rate::total     0.002031                       # mshr miss rate for overall accesses
system.cpu3.dcache.ReadReq_avg_mshr_miss_latency::switch_cpus3.data 76253.399725                       # average ReadReq mshr miss latency
system.cpu3.dcache.ReadReq_avg_mshr_miss_latency::total 76253.399725                       # average ReadReq mshr miss latency
system.cpu3.dcache.demand_avg_mshr_miss_latency::switch_cpus3.data 76253.399725                       # average overall mshr miss latency
system.cpu3.dcache.demand_avg_mshr_miss_latency::total 76253.399725                       # average overall mshr miss latency
system.cpu3.dcache.overall_avg_mshr_miss_latency::switch_cpus3.data 76253.399725                       # average overall mshr miss latency
system.cpu3.dcache.overall_avg_mshr_miss_latency::total 76253.399725                       # average overall mshr miss latency
system.cpu3.dcache.no_allocate_misses               0                       # Number of misses that were no-allocate

---------- End Simulation Statistics   ----------
