
---------- Begin Simulation Statistics ----------
sim_seconds                                  0.001196                       # Number of seconds simulated
sim_ticks                                  1196470995                       # Number of ticks simulated
final_tick                               449091550635                       # Number of ticks from beginning of simulation (restored from checkpoints and never reset)
sim_freq                                 1000000000000                       # Frequency of simulated ticks
host_inst_rate                                 207153                       # Simulator instruction rate (inst/s)
host_op_rate                                   264093                       # Simulator op (including micro ops) rate (op/s)
host_tick_rate                                  36726                       # Simulator tick rate (ticks/s)
host_mem_usage                               67342432                       # Number of bytes of host memory used
host_seconds                                 32578.45                       # Real time elapsed on the host
sim_insts                                  6748733284                       # Number of instructions simulated
sim_ops                                    8603741739                       # Number of ops (including micro ops) simulated
system.physmem.bytes_read::switch_cpus0.inst         3328                       # Number of bytes read from this memory
system.physmem.bytes_read::switch_cpus0.data        23296                       # Number of bytes read from this memory
system.physmem.bytes_read::switch_cpus1.inst         1792                       # Number of bytes read from this memory
system.physmem.bytes_read::switch_cpus1.data        21504                       # Number of bytes read from this memory
system.physmem.bytes_read::switch_cpus2.inst         3456                       # Number of bytes read from this memory
system.physmem.bytes_read::switch_cpus2.data        11648                       # Number of bytes read from this memory
system.physmem.bytes_read::switch_cpus3.inst         3712                       # Number of bytes read from this memory
system.physmem.bytes_read::switch_cpus3.data        40704                       # Number of bytes read from this memory
system.physmem.bytes_read::switch_cpus4.inst         3712                       # Number of bytes read from this memory
system.physmem.bytes_read::switch_cpus4.data        40320                       # Number of bytes read from this memory
system.physmem.bytes_read::switch_cpus5.inst         3328                       # Number of bytes read from this memory
system.physmem.bytes_read::switch_cpus5.data        11520                       # Number of bytes read from this memory
system.physmem.bytes_read::switch_cpus6.inst         1792                       # Number of bytes read from this memory
system.physmem.bytes_read::switch_cpus6.data        21120                       # Number of bytes read from this memory
system.physmem.bytes_read::switch_cpus7.inst         3584                       # Number of bytes read from this memory
system.physmem.bytes_read::switch_cpus7.data        40192                       # Number of bytes read from this memory
system.physmem.bytes_read::total               235008                       # Number of bytes read from this memory
system.physmem.bytes_inst_read::switch_cpus0.inst         3328                       # Number of instructions bytes read from this memory
system.physmem.bytes_inst_read::switch_cpus1.inst         1792                       # Number of instructions bytes read from this memory
system.physmem.bytes_inst_read::switch_cpus2.inst         3456                       # Number of instructions bytes read from this memory
system.physmem.bytes_inst_read::switch_cpus3.inst         3712                       # Number of instructions bytes read from this memory
system.physmem.bytes_inst_read::switch_cpus4.inst         3712                       # Number of instructions bytes read from this memory
system.physmem.bytes_inst_read::switch_cpus5.inst         3328                       # Number of instructions bytes read from this memory
system.physmem.bytes_inst_read::switch_cpus6.inst         1792                       # Number of instructions bytes read from this memory
system.physmem.bytes_inst_read::switch_cpus7.inst         3584                       # Number of instructions bytes read from this memory
system.physmem.bytes_inst_read::total           24704                       # Number of instructions bytes read from this memory
system.physmem.bytes_written::writebacks        91776                       # Number of bytes written to this memory
system.physmem.bytes_written::total             91776                       # Number of bytes written to this memory
system.physmem.num_reads::switch_cpus0.inst           26                       # Number of read requests responded to by this memory
system.physmem.num_reads::switch_cpus0.data          182                       # Number of read requests responded to by this memory
system.physmem.num_reads::switch_cpus1.inst           14                       # Number of read requests responded to by this memory
system.physmem.num_reads::switch_cpus1.data          168                       # Number of read requests responded to by this memory
system.physmem.num_reads::switch_cpus2.inst           27                       # Number of read requests responded to by this memory
system.physmem.num_reads::switch_cpus2.data           91                       # Number of read requests responded to by this memory
system.physmem.num_reads::switch_cpus3.inst           29                       # Number of read requests responded to by this memory
system.physmem.num_reads::switch_cpus3.data          318                       # Number of read requests responded to by this memory
system.physmem.num_reads::switch_cpus4.inst           29                       # Number of read requests responded to by this memory
system.physmem.num_reads::switch_cpus4.data          315                       # Number of read requests responded to by this memory
system.physmem.num_reads::switch_cpus5.inst           26                       # Number of read requests responded to by this memory
system.physmem.num_reads::switch_cpus5.data           90                       # Number of read requests responded to by this memory
system.physmem.num_reads::switch_cpus6.inst           14                       # Number of read requests responded to by this memory
system.physmem.num_reads::switch_cpus6.data          165                       # Number of read requests responded to by this memory
system.physmem.num_reads::switch_cpus7.inst           28                       # Number of read requests responded to by this memory
system.physmem.num_reads::switch_cpus7.data          314                       # Number of read requests responded to by this memory
system.physmem.num_reads::total                  1836                       # Number of read requests responded to by this memory
system.physmem.num_writes::writebacks             717                       # Number of write requests responded to by this memory
system.physmem.num_writes::functional               0                       # Number of write requests responded to by this memory
system.physmem.num_writes::interrupt                0                       # Number of write requests responded to by this memory
system.physmem.num_writes::switch_cpus0.dtb.walker            0                       # Number of write requests responded to by this memory
system.physmem.num_writes::switch_cpus0.itb.walker            0                       # Number of write requests responded to by this memory
system.physmem.num_writes::switch_cpus0.inst            0                       # Number of write requests responded to by this memory
system.physmem.num_writes::switch_cpus0.data            0                       # Number of write requests responded to by this memory
system.physmem.num_writes::switch_cpus1.dtb.walker            0                       # Number of write requests responded to by this memory
system.physmem.num_writes::switch_cpus1.itb.walker            0                       # Number of write requests responded to by this memory
system.physmem.num_writes::switch_cpus1.inst            0                       # Number of write requests responded to by this memory
system.physmem.num_writes::switch_cpus1.data            0                       # Number of write requests responded to by this memory
system.physmem.num_writes::switch_cpus2.dtb.walker            0                       # Number of write requests responded to by this memory
system.physmem.num_writes::switch_cpus2.itb.walker            0                       # Number of write requests responded to by this memory
system.physmem.num_writes::switch_cpus2.inst            0                       # Number of write requests responded to by this memory
system.physmem.num_writes::switch_cpus2.data            0                       # Number of write requests responded to by this memory
system.physmem.num_writes::switch_cpus3.dtb.walker            0                       # Number of write requests responded to by this memory
system.physmem.num_writes::switch_cpus3.itb.walker            0                       # Number of write requests responded to by this memory
system.physmem.num_writes::switch_cpus3.inst            0                       # Number of write requests responded to by this memory
system.physmem.num_writes::switch_cpus3.data            0                       # Number of write requests responded to by this memory
system.physmem.num_writes::switch_cpus4.dtb.walker            0                       # Number of write requests responded to by this memory
system.physmem.num_writes::switch_cpus4.itb.walker            0                       # Number of write requests responded to by this memory
system.physmem.num_writes::switch_cpus4.inst            0                       # Number of write requests responded to by this memory
system.physmem.num_writes::switch_cpus4.data            0                       # Number of write requests responded to by this memory
system.physmem.num_writes::switch_cpus5.dtb.walker            0                       # Number of write requests responded to by this memory
system.physmem.num_writes::switch_cpus5.itb.walker            0                       # Number of write requests responded to by this memory
system.physmem.num_writes::switch_cpus5.inst            0                       # Number of write requests responded to by this memory
system.physmem.num_writes::switch_cpus5.data            0                       # Number of write requests responded to by this memory
system.physmem.num_writes::switch_cpus6.dtb.walker            0                       # Number of write requests responded to by this memory
system.physmem.num_writes::switch_cpus6.itb.walker            0                       # Number of write requests responded to by this memory
system.physmem.num_writes::switch_cpus6.inst            0                       # Number of write requests responded to by this memory
system.physmem.num_writes::switch_cpus6.data            0                       # Number of write requests responded to by this memory
system.physmem.num_writes::switch_cpus7.dtb.walker            0                       # Number of write requests responded to by this memory
system.physmem.num_writes::switch_cpus7.itb.walker            0                       # Number of write requests responded to by this memory
system.physmem.num_writes::switch_cpus7.inst            0                       # Number of write requests responded to by this memory
system.physmem.num_writes::switch_cpus7.data            0                       # Number of write requests responded to by this memory
system.physmem.num_writes::cpu0.dtb.walker            0                       # Number of write requests responded to by this memory
system.physmem.num_writes::cpu0.itb.walker            0                       # Number of write requests responded to by this memory
system.physmem.num_writes::cpu0.inst                0                       # Number of write requests responded to by this memory
system.physmem.num_writes::cpu0.data                0                       # Number of write requests responded to by this memory
system.physmem.num_writes::cpu1.dtb.walker            0                       # Number of write requests responded to by this memory
system.physmem.num_writes::cpu1.itb.walker            0                       # Number of write requests responded to by this memory
system.physmem.num_writes::cpu1.inst                0                       # Number of write requests responded to by this memory
system.physmem.num_writes::cpu1.data                0                       # Number of write requests responded to by this memory
system.physmem.num_writes::cpu2.dtb.walker            0                       # Number of write requests responded to by this memory
system.physmem.num_writes::cpu2.itb.walker            0                       # Number of write requests responded to by this memory
system.physmem.num_writes::cpu2.inst                0                       # Number of write requests responded to by this memory
system.physmem.num_writes::cpu2.data                0                       # Number of write requests responded to by this memory
system.physmem.num_writes::cpu3.dtb.walker            0                       # Number of write requests responded to by this memory
system.physmem.num_writes::cpu3.itb.walker            0                       # Number of write requests responded to by this memory
system.physmem.num_writes::cpu3.inst                0                       # Number of write requests responded to by this memory
system.physmem.num_writes::cpu3.data                0                       # Number of write requests responded to by this memory
system.physmem.num_writes::cpu4.dtb.walker            0                       # Number of write requests responded to by this memory
system.physmem.num_writes::cpu4.itb.walker            0                       # Number of write requests responded to by this memory
system.physmem.num_writes::cpu4.inst                0                       # Number of write requests responded to by this memory
system.physmem.num_writes::cpu4.data                0                       # Number of write requests responded to by this memory
system.physmem.num_writes::cpu5.dtb.walker            0                       # Number of write requests responded to by this memory
system.physmem.num_writes::cpu5.itb.walker            0                       # Number of write requests responded to by this memory
system.physmem.num_writes::cpu5.inst                0                       # Number of write requests responded to by this memory
system.physmem.num_writes::cpu5.data                0                       # Number of write requests responded to by this memory
system.physmem.num_writes::cpu6.dtb.walker            0                       # Number of write requests responded to by this memory
system.physmem.num_writes::cpu6.itb.walker            0                       # Number of write requests responded to by this memory
system.physmem.num_writes::cpu6.inst                0                       # Number of write requests responded to by this memory
system.physmem.num_writes::cpu6.data                0                       # Number of write requests responded to by this memory
system.physmem.num_writes::cpu7.dtb.walker            0                       # Number of write requests responded to by this memory
system.physmem.num_writes::cpu7.itb.walker            0                       # Number of write requests responded to by this memory
system.physmem.num_writes::cpu7.inst                0                       # Number of write requests responded to by this memory
system.physmem.num_writes::cpu7.data                0                       # Number of write requests responded to by this memory
system.physmem.num_writes::total                  717                       # Number of write requests responded to by this memory
system.physmem.bw_read::switch_cpus0.inst      2781513                       # Total read bandwidth from this memory (bytes/s)
system.physmem.bw_read::switch_cpus0.data     19470593                       # Total read bandwidth from this memory (bytes/s)
system.physmem.bw_read::switch_cpus1.inst      1497738                       # Total read bandwidth from this memory (bytes/s)
system.physmem.bw_read::switch_cpus1.data     17972855                       # Total read bandwidth from this memory (bytes/s)
system.physmem.bw_read::switch_cpus2.inst      2888495                       # Total read bandwidth from this memory (bytes/s)
system.physmem.bw_read::switch_cpus2.data      9735297                       # Total read bandwidth from this memory (bytes/s)
system.physmem.bw_read::switch_cpus3.inst      3102457                       # Total read bandwidth from this memory (bytes/s)
system.physmem.bw_read::switch_cpus3.data     34020047                       # Total read bandwidth from this memory (bytes/s)
system.physmem.bw_read::switch_cpus4.inst      3102457                       # Total read bandwidth from this memory (bytes/s)
system.physmem.bw_read::switch_cpus4.data     33699104                       # Total read bandwidth from this memory (bytes/s)
system.physmem.bw_read::switch_cpus5.inst      2781513                       # Total read bandwidth from this memory (bytes/s)
system.physmem.bw_read::switch_cpus5.data      9628315                       # Total read bandwidth from this memory (bytes/s)
system.physmem.bw_read::switch_cpus6.inst      1497738                       # Total read bandwidth from this memory (bytes/s)
system.physmem.bw_read::switch_cpus6.data     17651911                       # Total read bandwidth from this memory (bytes/s)
system.physmem.bw_read::switch_cpus7.inst      2995476                       # Total read bandwidth from this memory (bytes/s)
system.physmem.bw_read::switch_cpus7.data     33592122                       # Total read bandwidth from this memory (bytes/s)
system.physmem.bw_read::total               196417632                       # Total read bandwidth from this memory (bytes/s)
system.physmem.bw_inst_read::switch_cpus0.inst      2781513                       # Instruction read bandwidth from this memory (bytes/s)
system.physmem.bw_inst_read::switch_cpus1.inst      1497738                       # Instruction read bandwidth from this memory (bytes/s)
system.physmem.bw_inst_read::switch_cpus2.inst      2888495                       # Instruction read bandwidth from this memory (bytes/s)
system.physmem.bw_inst_read::switch_cpus3.inst      3102457                       # Instruction read bandwidth from this memory (bytes/s)
system.physmem.bw_inst_read::switch_cpus4.inst      3102457                       # Instruction read bandwidth from this memory (bytes/s)
system.physmem.bw_inst_read::switch_cpus5.inst      2781513                       # Instruction read bandwidth from this memory (bytes/s)
system.physmem.bw_inst_read::switch_cpus6.inst      1497738                       # Instruction read bandwidth from this memory (bytes/s)
system.physmem.bw_inst_read::switch_cpus7.inst      2995476                       # Instruction read bandwidth from this memory (bytes/s)
system.physmem.bw_inst_read::total           20647387                       # Instruction read bandwidth from this memory (bytes/s)
system.physmem.bw_write::writebacks          76705579                       # Write bandwidth from this memory (bytes/s)
system.physmem.bw_write::total               76705579                       # Write bandwidth from this memory (bytes/s)
system.physmem.bw_total::writebacks          76705579                       # Total bandwidth to/from this memory (bytes/s)
system.physmem.bw_total::switch_cpus0.inst      2781513                       # Total bandwidth to/from this memory (bytes/s)
system.physmem.bw_total::switch_cpus0.data     19470593                       # Total bandwidth to/from this memory (bytes/s)
system.physmem.bw_total::switch_cpus1.inst      1497738                       # Total bandwidth to/from this memory (bytes/s)
system.physmem.bw_total::switch_cpus1.data     17972855                       # Total bandwidth to/from this memory (bytes/s)
system.physmem.bw_total::switch_cpus2.inst      2888495                       # Total bandwidth to/from this memory (bytes/s)
system.physmem.bw_total::switch_cpus2.data      9735297                       # Total bandwidth to/from this memory (bytes/s)
system.physmem.bw_total::switch_cpus3.inst      3102457                       # Total bandwidth to/from this memory (bytes/s)
system.physmem.bw_total::switch_cpus3.data     34020047                       # Total bandwidth to/from this memory (bytes/s)
system.physmem.bw_total::switch_cpus4.inst      3102457                       # Total bandwidth to/from this memory (bytes/s)
system.physmem.bw_total::switch_cpus4.data     33699104                       # Total bandwidth to/from this memory (bytes/s)
system.physmem.bw_total::switch_cpus5.inst      2781513                       # Total bandwidth to/from this memory (bytes/s)
system.physmem.bw_total::switch_cpus5.data      9628315                       # Total bandwidth to/from this memory (bytes/s)
system.physmem.bw_total::switch_cpus6.inst      1497738                       # Total bandwidth to/from this memory (bytes/s)
system.physmem.bw_total::switch_cpus6.data     17651911                       # Total bandwidth to/from this memory (bytes/s)
system.physmem.bw_total::switch_cpus7.inst      2995476                       # Total bandwidth to/from this memory (bytes/s)
system.physmem.bw_total::switch_cpus7.data     33592122                       # Total bandwidth to/from this memory (bytes/s)
system.physmem.bw_total::total              273123211                       # Total bandwidth to/from this memory (bytes/s)
system.switch_cpus0.dtb.inst_hits                   0                       # ITB inst hits
system.switch_cpus0.dtb.inst_misses                 0                       # ITB inst misses
system.switch_cpus0.dtb.read_hits                   0                       # DTB read hits
system.switch_cpus0.dtb.read_misses                 0                       # DTB read misses
system.switch_cpus0.dtb.write_hits                  0                       # DTB write hits
system.switch_cpus0.dtb.write_misses                0                       # DTB write misses
system.switch_cpus0.dtb.flush_tlb                   0                       # Number of times complete TLB was flushed
system.switch_cpus0.dtb.flush_tlb_mva               0                       # Number of times TLB was flushed by MVA
system.switch_cpus0.dtb.flush_tlb_mva_asid            0                       # Number of times TLB was flushed by MVA & ASID
system.switch_cpus0.dtb.flush_tlb_asid              0                       # Number of times TLB was flushed by ASID
system.switch_cpus0.dtb.flush_entries               0                       # Number of entries that have been flushed from TLB
system.switch_cpus0.dtb.align_faults                0                       # Number of TLB faults due to alignment restrictions
system.switch_cpus0.dtb.prefetch_faults             0                       # Number of TLB faults due to prefetch
system.switch_cpus0.dtb.domain_faults               0                       # Number of TLB faults due to domain restrictions
system.switch_cpus0.dtb.perms_faults                0                       # Number of TLB faults due to permissions restrictions
system.switch_cpus0.dtb.read_accesses               0                       # DTB read accesses
system.switch_cpus0.dtb.write_accesses              0                       # DTB write accesses
system.switch_cpus0.dtb.inst_accesses               0                       # ITB inst accesses
system.switch_cpus0.dtb.hits                        0                       # DTB hits
system.switch_cpus0.dtb.misses                      0                       # DTB misses
system.switch_cpus0.dtb.accesses                    0                       # DTB accesses
system.switch_cpus0.itb.inst_hits                   0                       # ITB inst hits
system.switch_cpus0.itb.inst_misses                 0                       # ITB inst misses
system.switch_cpus0.itb.read_hits                   0                       # DTB read hits
system.switch_cpus0.itb.read_misses                 0                       # DTB read misses
system.switch_cpus0.itb.write_hits                  0                       # DTB write hits
system.switch_cpus0.itb.write_misses                0                       # DTB write misses
system.switch_cpus0.itb.flush_tlb                   0                       # Number of times complete TLB was flushed
system.switch_cpus0.itb.flush_tlb_mva               0                       # Number of times TLB was flushed by MVA
system.switch_cpus0.itb.flush_tlb_mva_asid            0                       # Number of times TLB was flushed by MVA & ASID
system.switch_cpus0.itb.flush_tlb_asid              0                       # Number of times TLB was flushed by ASID
system.switch_cpus0.itb.flush_entries               0                       # Number of entries that have been flushed from TLB
system.switch_cpus0.itb.align_faults                0                       # Number of TLB faults due to alignment restrictions
system.switch_cpus0.itb.prefetch_faults             0                       # Number of TLB faults due to prefetch
system.switch_cpus0.itb.domain_faults               0                       # Number of TLB faults due to domain restrictions
system.switch_cpus0.itb.perms_faults                0                       # Number of TLB faults due to permissions restrictions
system.switch_cpus0.itb.read_accesses               0                       # DTB read accesses
system.switch_cpus0.itb.write_accesses              0                       # DTB write accesses
system.switch_cpus0.itb.inst_accesses               0                       # ITB inst accesses
system.switch_cpus0.itb.hits                        0                       # DTB hits
system.switch_cpus0.itb.misses                      0                       # DTB misses
system.switch_cpus0.itb.accesses                    0                       # DTB accesses
system.cpu0.workload.num_syscalls                   1                       # Number of system calls
system.switch_cpus0.numCycles                 2869236                       # number of cpu cycles simulated
system.switch_cpus0.numWorkItemsStarted             0                       # number of work items this cpu started
system.switch_cpus0.numWorkItemsCompleted            0                       # number of work items this cpu completed
system.switch_cpus0.BPredUnit.lookups          221320                       # Number of BP lookups
system.switch_cpus0.BPredUnit.condPredicted       196012                       # Number of conditional branches predicted
system.switch_cpus0.BPredUnit.condIncorrect        19158                       # Number of conditional branches incorrect
system.switch_cpus0.BPredUnit.BTBLookups       141603                       # Number of BTB lookups
system.switch_cpus0.BPredUnit.BTBHits          137773                       # Number of BTB hits
system.switch_cpus0.BPredUnit.BTBCorrect            0                       # Number of correct BTB predictions (this stat may not work properly.
system.switch_cpus0.BPredUnit.usedRAS           13663                       # Number of times the RAS was used to get a target.
system.switch_cpus0.BPredUnit.RASInCorrect          635                       # Number of incorrect RAS predictions.
system.switch_cpus0.fetch.icacheStallCycles      2303848                       # Number of cycles fetch is stalled on an Icache miss
system.switch_cpus0.fetch.Insts               1255328                       # Number of instructions fetch has processed
system.switch_cpus0.fetch.Branches             221320                       # Number of branches that fetch encountered
system.switch_cpus0.fetch.predictedBranches       151436                       # Number of branches that fetch has predicted taken
system.switch_cpus0.fetch.Cycles               278014                       # Number of cycles fetch has run and was not squashing or blocked
system.switch_cpus0.fetch.SquashCycles          62352                       # Number of cycles fetch has spent squashing
system.switch_cpus0.fetch.BlockedCycles         34651                       # Number of cycles fetch has spent blocked
system.switch_cpus0.fetch.CacheLines           140561                       # Number of cache lines fetched
system.switch_cpus0.fetch.IcacheSquashes        18609                       # Number of outstanding Icache misses that were squashed
system.switch_cpus0.fetch.rateDist::samples      2659587                       # Number of instructions fetched each cycle (Total)
system.switch_cpus0.fetch.rateDist::mean     0.532218                       # Number of instructions fetched each cycle (Total)
system.switch_cpus0.fetch.rateDist::stdev     1.787026                       # Number of instructions fetched each cycle (Total)
system.switch_cpus0.fetch.rateDist::underflows            0      0.00%      0.00% # Number of instructions fetched each cycle (Total)
system.switch_cpus0.fetch.rateDist::0         2381573     89.55%     89.55% # Number of instructions fetched each cycle (Total)
system.switch_cpus0.fetch.rateDist::1           41158      1.55%     91.09% # Number of instructions fetched each cycle (Total)
system.switch_cpus0.fetch.rateDist::2           21585      0.81%     91.91% # Number of instructions fetched each cycle (Total)
system.switch_cpus0.fetch.rateDist::3           40412      1.52%     93.43% # Number of instructions fetched each cycle (Total)
system.switch_cpus0.fetch.rateDist::4           13502      0.51%     93.93% # Number of instructions fetched each cycle (Total)
system.switch_cpus0.fetch.rateDist::5           37435      1.41%     95.34% # Number of instructions fetched each cycle (Total)
system.switch_cpus0.fetch.rateDist::6            6077      0.23%     95.57% # Number of instructions fetched each cycle (Total)
system.switch_cpus0.fetch.rateDist::7           10489      0.39%     95.96% # Number of instructions fetched each cycle (Total)
system.switch_cpus0.fetch.rateDist::8          107356      4.04%    100.00% # Number of instructions fetched each cycle (Total)
system.switch_cpus0.fetch.rateDist::overflows            0      0.00%    100.00% # Number of instructions fetched each cycle (Total)
system.switch_cpus0.fetch.rateDist::min_value            0                       # Number of instructions fetched each cycle (Total)
system.switch_cpus0.fetch.rateDist::max_value            8                       # Number of instructions fetched each cycle (Total)
system.switch_cpus0.fetch.rateDist::total      2659587                       # Number of instructions fetched each cycle (Total)
system.switch_cpus0.fetch.branchRate         0.077136                       # Number of branch fetches per cycle
system.switch_cpus0.fetch.rate               0.437513                       # Number of inst fetches per cycle
system.switch_cpus0.decode.IdleCycles         2222906                       # Number of cycles decode is idle
system.switch_cpus0.decode.BlockedCycles       116402                       # Number of cycles decode is blocked
system.switch_cpus0.decode.RunCycles           277298                       # Number of cycles decode is running
system.switch_cpus0.decode.UnblockCycles          321                       # Number of cycles decode is unblocking
system.switch_cpus0.decode.SquashCycles         42654                       # Number of cycles decode is squashing
system.switch_cpus0.decode.BranchResolved        21913                       # Number of times decode resolved a branch
system.switch_cpus0.decode.BranchMispred          420                       # Number of times decode detected a branch misprediction
system.switch_cpus0.decode.DecodedInsts       1410587                       # Number of instructions handled by decode
system.switch_cpus0.decode.SquashedInsts         1757                       # Number of squashed instructions handled by decode
system.switch_cpus0.rename.SquashCycles         42654                       # Number of cycles rename is squashing
system.switch_cpus0.rename.IdleCycles         2231838                       # Number of cycles rename is idle
system.switch_cpus0.rename.BlockCycles          76677                       # Number of cycles rename is blocking
system.switch_cpus0.rename.serializeStallCycles        15058                       # count of cycles rename stalled for serializing inst
system.switch_cpus0.rename.RunCycles           270446                       # Number of cycles rename is running
system.switch_cpus0.rename.UnblockCycles        22908                       # Number of cycles rename is unblocking
system.switch_cpus0.rename.RenamedInsts       1407888                       # Number of instructions processed by rename
system.switch_cpus0.rename.ROBFullEvents            7                       # Number of times rename has blocked due to ROB full
system.switch_cpus0.rename.IQFullEvents          1100                       # Number of times rename has blocked due to IQ full
system.switch_cpus0.rename.LSQFullEvents        20865                       # Number of times rename has blocked due to LSQ full
system.switch_cpus0.rename.RenamedOperands      1852022                       # Number of destination operands rename has renamed
system.switch_cpus0.rename.RenameLookups      6389151                       # Number of register rename lookups that rename has made
system.switch_cpus0.rename.int_rename_lookups      6389151                       # Number of integer rename lookups
system.switch_cpus0.rename.CommittedMaps      1478065                       # Number of HB maps that are committed
system.switch_cpus0.rename.UndoneMaps          373930                       # Number of HB maps that are undone due to squashing
system.switch_cpus0.rename.serializingInsts          202                       # count of serializing insts renamed
system.switch_cpus0.rename.tempSerializingInsts          108                       # count of temporary serializing insts renamed
system.switch_cpus0.rename.skidInsts            40994                       # count of insts added to the skid buffer
system.switch_cpus0.memDep0.insertedLoads       247976                       # Number of loads inserted to the mem dependence unit.
system.switch_cpus0.memDep0.insertedStores        42570                       # Number of stores inserted to the mem dependence unit.
system.switch_cpus0.memDep0.conflictingLoads          255                       # Number of conflicting loads.
system.switch_cpus0.memDep0.conflictingStores         9368                       # Number of conflicting stores.
system.switch_cpus0.iq.iqInstsAdded           1398667                       # Number of instructions added to the IQ (excludes non-spec)
system.switch_cpus0.iq.iqNonSpecInstsAdded          206                       # Number of non-speculative instructions added to the IQ
system.switch_cpus0.iq.iqInstsIssued          1301058                       # Number of instructions issued
system.switch_cpus0.iq.iqSquashedInstsIssued         1193                       # Number of squashed instructions issued
system.switch_cpus0.iq.iqSquashedInstsExamined       266137                       # Number of squashed instructions iterated over during squash; mainly for profiling
system.switch_cpus0.iq.iqSquashedOperandsExamined       560784                       # Number of squashed operands that are examined and possibly removed from graph
system.switch_cpus0.iq.iqSquashedNonSpecRemoved            8                       # Number of squashed non-spec instructions that were removed
system.switch_cpus0.iq.issued_per_cycle::samples      2659587                       # Number of insts issued each cycle
system.switch_cpus0.iq.issued_per_cycle::mean     0.489196                       # Number of insts issued each cycle
system.switch_cpus0.iq.issued_per_cycle::stdev     1.106053                       # Number of insts issued each cycle
system.switch_cpus0.iq.issued_per_cycle::underflows            0      0.00%      0.00% # Number of insts issued each cycle
system.switch_cpus0.iq.issued_per_cycle::0      2087435     78.49%     78.49% # Number of insts issued each cycle
system.switch_cpus0.iq.issued_per_cycle::1       190314      7.16%     85.64% # Number of insts issued each cycle
system.switch_cpus0.iq.issued_per_cycle::2       179295      6.74%     92.38% # Number of insts issued each cycle
system.switch_cpus0.iq.issued_per_cycle::3       110936      4.17%     96.56% # Number of insts issued each cycle
system.switch_cpus0.iq.issued_per_cycle::4        58211      2.19%     98.74% # Number of insts issued each cycle
system.switch_cpus0.iq.issued_per_cycle::5        15064      0.57%     99.31% # Number of insts issued each cycle
system.switch_cpus0.iq.issued_per_cycle::6        17525      0.66%     99.97% # Number of insts issued each cycle
system.switch_cpus0.iq.issued_per_cycle::7          424      0.02%     99.99% # Number of insts issued each cycle
system.switch_cpus0.iq.issued_per_cycle::8          383      0.01%    100.00% # Number of insts issued each cycle
system.switch_cpus0.iq.issued_per_cycle::overflows            0      0.00%    100.00% # Number of insts issued each cycle
system.switch_cpus0.iq.issued_per_cycle::min_value            0                       # Number of insts issued each cycle
system.switch_cpus0.iq.issued_per_cycle::max_value            8                       # Number of insts issued each cycle
system.switch_cpus0.iq.issued_per_cycle::total      2659587                       # Number of insts issued each cycle
system.switch_cpus0.iq.fu_full::No_OpClass            0      0.00%      0.00% # attempts to use FU when none available
system.switch_cpus0.iq.fu_full::IntAlu           2353     57.83%     57.83% # attempts to use FU when none available
system.switch_cpus0.iq.fu_full::IntMult             0      0.00%     57.83% # attempts to use FU when none available
system.switch_cpus0.iq.fu_full::IntDiv              0      0.00%     57.83% # attempts to use FU when none available
system.switch_cpus0.iq.fu_full::FloatAdd            0      0.00%     57.83% # attempts to use FU when none available
system.switch_cpus0.iq.fu_full::FloatCmp            0      0.00%     57.83% # attempts to use FU when none available
system.switch_cpus0.iq.fu_full::FloatCvt            0      0.00%     57.83% # attempts to use FU when none available
system.switch_cpus0.iq.fu_full::FloatMult            0      0.00%     57.83% # attempts to use FU when none available
system.switch_cpus0.iq.fu_full::FloatDiv            0      0.00%     57.83% # attempts to use FU when none available
system.switch_cpus0.iq.fu_full::FloatSqrt            0      0.00%     57.83% # attempts to use FU when none available
system.switch_cpus0.iq.fu_full::SimdAdd             0      0.00%     57.83% # attempts to use FU when none available
system.switch_cpus0.iq.fu_full::SimdAddAcc            0      0.00%     57.83% # attempts to use FU when none available
system.switch_cpus0.iq.fu_full::SimdAlu             0      0.00%     57.83% # attempts to use FU when none available
system.switch_cpus0.iq.fu_full::SimdCmp             0      0.00%     57.83% # attempts to use FU when none available
system.switch_cpus0.iq.fu_full::SimdCvt             0      0.00%     57.83% # attempts to use FU when none available
system.switch_cpus0.iq.fu_full::SimdMisc            0      0.00%     57.83% # attempts to use FU when none available
system.switch_cpus0.iq.fu_full::SimdMult            0      0.00%     57.83% # attempts to use FU when none available
system.switch_cpus0.iq.fu_full::SimdMultAcc            0      0.00%     57.83% # attempts to use FU when none available
system.switch_cpus0.iq.fu_full::SimdShift            0      0.00%     57.83% # attempts to use FU when none available
system.switch_cpus0.iq.fu_full::SimdShiftAcc            0      0.00%     57.83% # attempts to use FU when none available
system.switch_cpus0.iq.fu_full::SimdSqrt            0      0.00%     57.83% # attempts to use FU when none available
system.switch_cpus0.iq.fu_full::SimdFloatAdd            0      0.00%     57.83% # attempts to use FU when none available
system.switch_cpus0.iq.fu_full::SimdFloatAlu            0      0.00%     57.83% # attempts to use FU when none available
system.switch_cpus0.iq.fu_full::SimdFloatCmp            0      0.00%     57.83% # attempts to use FU when none available
system.switch_cpus0.iq.fu_full::SimdFloatCvt            0      0.00%     57.83% # attempts to use FU when none available
system.switch_cpus0.iq.fu_full::SimdFloatDiv            0      0.00%     57.83% # attempts to use FU when none available
system.switch_cpus0.iq.fu_full::SimdFloatMisc            0      0.00%     57.83% # attempts to use FU when none available
system.switch_cpus0.iq.fu_full::SimdFloatMult            0      0.00%     57.83% # attempts to use FU when none available
system.switch_cpus0.iq.fu_full::SimdFloatMultAcc            0      0.00%     57.83% # attempts to use FU when none available
system.switch_cpus0.iq.fu_full::SimdFloatSqrt            0      0.00%     57.83% # attempts to use FU when none available
system.switch_cpus0.iq.fu_full::MemRead           939     23.08%     80.90% # attempts to use FU when none available
system.switch_cpus0.iq.fu_full::MemWrite          777     19.10%    100.00% # attempts to use FU when none available
system.switch_cpus0.iq.fu_full::IprAccess            0      0.00%    100.00% # attempts to use FU when none available
system.switch_cpus0.iq.fu_full::InstPrefetch            0      0.00%    100.00% # attempts to use FU when none available
system.switch_cpus0.iq.FU_type_0::No_OpClass            0      0.00%      0.00% # Type of FU issued
system.switch_cpus0.iq.FU_type_0::IntAlu      1023594     78.67%     78.67% # Type of FU issued
system.switch_cpus0.iq.FU_type_0::IntMult        10471      0.80%     79.48% # Type of FU issued
system.switch_cpus0.iq.FU_type_0::IntDiv            0      0.00%     79.48% # Type of FU issued
system.switch_cpus0.iq.FU_type_0::FloatAdd            0      0.00%     79.48% # Type of FU issued
system.switch_cpus0.iq.FU_type_0::FloatCmp            0      0.00%     79.48% # Type of FU issued
system.switch_cpus0.iq.FU_type_0::FloatCvt            0      0.00%     79.48% # Type of FU issued
system.switch_cpus0.iq.FU_type_0::FloatMult            0      0.00%     79.48% # Type of FU issued
system.switch_cpus0.iq.FU_type_0::FloatDiv            0      0.00%     79.48% # Type of FU issued
system.switch_cpus0.iq.FU_type_0::FloatSqrt            0      0.00%     79.48% # Type of FU issued
system.switch_cpus0.iq.FU_type_0::SimdAdd            0      0.00%     79.48% # Type of FU issued
system.switch_cpus0.iq.FU_type_0::SimdAddAcc            0      0.00%     79.48% # Type of FU issued
system.switch_cpus0.iq.FU_type_0::SimdAlu            0      0.00%     79.48% # Type of FU issued
system.switch_cpus0.iq.FU_type_0::SimdCmp            0      0.00%     79.48% # Type of FU issued
system.switch_cpus0.iq.FU_type_0::SimdCvt            0      0.00%     79.48% # Type of FU issued
system.switch_cpus0.iq.FU_type_0::SimdMisc            0      0.00%     79.48% # Type of FU issued
system.switch_cpus0.iq.FU_type_0::SimdMult            0      0.00%     79.48% # Type of FU issued
system.switch_cpus0.iq.FU_type_0::SimdMultAcc            0      0.00%     79.48% # Type of FU issued
system.switch_cpus0.iq.FU_type_0::SimdShift            0      0.00%     79.48% # Type of FU issued
system.switch_cpus0.iq.FU_type_0::SimdShiftAcc            0      0.00%     79.48% # Type of FU issued
system.switch_cpus0.iq.FU_type_0::SimdSqrt            0      0.00%     79.48% # Type of FU issued
system.switch_cpus0.iq.FU_type_0::SimdFloatAdd            0      0.00%     79.48% # Type of FU issued
system.switch_cpus0.iq.FU_type_0::SimdFloatAlu            0      0.00%     79.48% # Type of FU issued
system.switch_cpus0.iq.FU_type_0::SimdFloatCmp            0      0.00%     79.48% # Type of FU issued
system.switch_cpus0.iq.FU_type_0::SimdFloatCvt            0      0.00%     79.48% # Type of FU issued
system.switch_cpus0.iq.FU_type_0::SimdFloatDiv            0      0.00%     79.48% # Type of FU issued
system.switch_cpus0.iq.FU_type_0::SimdFloatMisc           95      0.01%     79.49% # Type of FU issued
system.switch_cpus0.iq.FU_type_0::SimdFloatMult            0      0.00%     79.49% # Type of FU issued
system.switch_cpus0.iq.FU_type_0::SimdFloatMultAcc            0      0.00%     79.49% # Type of FU issued
system.switch_cpus0.iq.FU_type_0::SimdFloatSqrt            0      0.00%     79.49% # Type of FU issued
system.switch_cpus0.iq.FU_type_0::MemRead       224891     17.29%     96.77% # Type of FU issued
system.switch_cpus0.iq.FU_type_0::MemWrite        42007      3.23%    100.00% # Type of FU issued
system.switch_cpus0.iq.FU_type_0::IprAccess            0      0.00%    100.00% # Type of FU issued
system.switch_cpus0.iq.FU_type_0::InstPrefetch            0      0.00%    100.00% # Type of FU issued
system.switch_cpus0.iq.FU_type_0::total       1301058                       # Type of FU issued
system.switch_cpus0.iq.rate                  0.453451                       # Inst issue rate
system.switch_cpus0.iq.fu_busy_cnt               4069                       # FU busy when requested
system.switch_cpus0.iq.fu_busy_rate          0.003127                       # FU busy rate (busy events/executed inst)
system.switch_cpus0.iq.int_inst_queue_reads      5266964                       # Number of integer instruction queue reads
system.switch_cpus0.iq.int_inst_queue_writes      1665029                       # Number of integer instruction queue writes
system.switch_cpus0.iq.int_inst_queue_wakeup_accesses      1265935                       # Number of integer instruction queue wakeup accesses
system.switch_cpus0.iq.fp_inst_queue_reads            0                       # Number of floating instruction queue reads
system.switch_cpus0.iq.fp_inst_queue_writes            0                       # Number of floating instruction queue writes
system.switch_cpus0.iq.fp_inst_queue_wakeup_accesses            0                       # Number of floating instruction queue wakeup accesses
system.switch_cpus0.iq.int_alu_accesses       1305127                       # Number of integer alu accesses
system.switch_cpus0.iq.fp_alu_accesses              0                       # Number of floating point alu accesses
system.switch_cpus0.iew.lsq.thread0.forwLoads         1151                       # Number of loads that had data forwarded from stores
system.switch_cpus0.iew.lsq.thread0.invAddrLoads            0                       # Number of loads ignored due to an invalid address
system.switch_cpus0.iew.lsq.thread0.squashedLoads        52678                       # Number of loads squashed
system.switch_cpus0.iew.lsq.thread0.ignoredResponses            4                       # Number of memory responses ignored because the instruction is squashed
system.switch_cpus0.iew.lsq.thread0.memOrderViolation           21                       # Number of memory ordering violations
system.switch_cpus0.iew.lsq.thread0.squashedStores         1683                       # Number of stores squashed
system.switch_cpus0.iew.lsq.thread0.invAddrSwpfs            0                       # Number of software prefetches ignored due to an invalid address
system.switch_cpus0.iew.lsq.thread0.blockedLoads            0                       # Number of blocked loads due to partial load-store forwarding
system.switch_cpus0.iew.lsq.thread0.rescheduledLoads            0                       # Number of loads that were rescheduled
system.switch_cpus0.iew.lsq.thread0.cacheBlocked            0                       # Number of times an access to memory failed due to the cache being blocked
system.switch_cpus0.iew.iewIdleCycles               0                       # Number of cycles IEW is idle
system.switch_cpus0.iew.iewSquashCycles         42654                       # Number of cycles IEW is squashing
system.switch_cpus0.iew.iewBlockCycles          37096                       # Number of cycles IEW is blocking
system.switch_cpus0.iew.iewUnblockCycles         2986                       # Number of cycles IEW is unblocking
system.switch_cpus0.iew.iewDispatchedInsts      1398880                       # Number of instructions dispatched to IQ
system.switch_cpus0.iew.iewDispSquashedInsts           63                       # Number of squashed instructions skipped by dispatch
system.switch_cpus0.iew.iewDispLoadInsts       247976                       # Number of dispatched load instructions
system.switch_cpus0.iew.iewDispStoreInsts        42570                       # Number of dispatched store instructions
system.switch_cpus0.iew.iewDispNonSpecInsts          107                       # Number of dispatched non-speculative instructions
system.switch_cpus0.iew.iewIQFullEvents           499                       # Number of times the IQ has become full, causing a stall
system.switch_cpus0.iew.iewLSQFullEvents           20                       # Number of times the LSQ has become full, causing a stall
system.switch_cpus0.iew.memOrderViolationEvents           21                       # Number of memory order violations
system.switch_cpus0.iew.predictedTakenIncorrect        11476                       # Number of branches that were predicted taken incorrectly
system.switch_cpus0.iew.predictedNotTakenIncorrect         8827                       # Number of branches that were predicted not taken incorrectly
system.switch_cpus0.iew.branchMispredicts        20303                       # Number of branch mispredicts detected at execute
system.switch_cpus0.iew.iewExecutedInsts      1282318                       # Number of executed instructions
system.switch_cpus0.iew.iewExecLoadInsts       221217                       # Number of load instructions executed
system.switch_cpus0.iew.iewExecSquashedInsts        18739                       # Number of squashed instructions skipped in execute
system.switch_cpus0.iew.exec_swp                    0                       # number of swp insts executed
system.switch_cpus0.iew.exec_nop                    7                       # number of nop insts executed
system.switch_cpus0.iew.exec_refs              263201                       # number of memory reference insts executed
system.switch_cpus0.iew.exec_branches          194379                       # Number of branches executed
system.switch_cpus0.iew.exec_stores             41984                       # Number of stores executed
system.switch_cpus0.iew.exec_rate            0.446920                       # Inst execution rate
system.switch_cpus0.iew.wb_sent               1266478                       # cumulative count of insts sent to commit
system.switch_cpus0.iew.wb_count              1265935                       # cumulative count of insts written-back
system.switch_cpus0.iew.wb_producers           765121                       # num instructions producing a value
system.switch_cpus0.iew.wb_consumers          1690384                       # num instructions consuming a value
system.switch_cpus0.iew.wb_penalized                0                       # number of instrctions required to write to 'other' IQ
system.switch_cpus0.iew.wb_rate              0.441210                       # insts written-back per cycle
system.switch_cpus0.iew.wb_fanout            0.452631                       # average fanout of values written-back
system.switch_cpus0.iew.wb_penalized_rate            0                       # fraction of instructions written-back that wrote to 'other' IQ
system.switch_cpus0.commit.commitCommittedInsts      1000001                       # The number of committed instructions
system.switch_cpus0.commit.commitCommittedOps      1129674                       # The number of committed instructions
system.switch_cpus0.commit.commitSquashedInsts       269276                       # The number of squashed insts skipped by commit
system.switch_cpus0.commit.commitNonSpecStalls          198                       # The number of times commit has been forced to stall to communicate backwards
system.switch_cpus0.commit.branchMispredicts        18844                       # The number of times a branch was mispredicted
system.switch_cpus0.commit.committed_per_cycle::samples      2616933                       # Number of insts commited each cycle
system.switch_cpus0.commit.committed_per_cycle::mean     0.431679                       # Number of insts commited each cycle
system.switch_cpus0.commit.committed_per_cycle::stdev     1.299573                       # Number of insts commited each cycle
system.switch_cpus0.commit.committed_per_cycle::underflows            0      0.00%      0.00% # Number of insts commited each cycle
system.switch_cpus0.commit.committed_per_cycle::0      2194554     83.86%     83.86% # Number of insts commited each cycle
system.switch_cpus0.commit.committed_per_cycle::1       166756      6.37%     90.23% # Number of insts commited each cycle
system.switch_cpus0.commit.committed_per_cycle::2       106730      4.08%     94.31% # Number of insts commited each cycle
system.switch_cpus0.commit.committed_per_cycle::3        33288      1.27%     95.58% # Number of insts commited each cycle
system.switch_cpus0.commit.committed_per_cycle::4        55223      2.11%     97.69% # Number of insts commited each cycle
system.switch_cpus0.commit.committed_per_cycle::5        11166      0.43%     98.12% # Number of insts commited each cycle
system.switch_cpus0.commit.committed_per_cycle::6         7199      0.28%     98.39% # Number of insts commited each cycle
system.switch_cpus0.commit.committed_per_cycle::7         6458      0.25%     98.64% # Number of insts commited each cycle
system.switch_cpus0.commit.committed_per_cycle::8        35559      1.36%    100.00% # Number of insts commited each cycle
system.switch_cpus0.commit.committed_per_cycle::overflows            0      0.00%    100.00% # Number of insts commited each cycle
system.switch_cpus0.commit.committed_per_cycle::min_value            0                       # Number of insts commited each cycle
system.switch_cpus0.commit.committed_per_cycle::max_value            8                       # Number of insts commited each cycle
system.switch_cpus0.commit.committed_per_cycle::total      2616933                       # Number of insts commited each cycle
system.switch_cpus0.commit.committedInsts      1000001                       # Number of instructions committed
system.switch_cpus0.commit.committedOps       1129674                       # Number of ops (including micro ops) committed
system.switch_cpus0.commit.swp_count                0                       # Number of s/w prefetches committed
system.switch_cpus0.commit.refs                236185                       # Number of memory references committed
system.switch_cpus0.commit.loads               195298                       # Number of loads committed
system.switch_cpus0.commit.membars                 98                       # Number of memory barriers committed
system.switch_cpus0.commit.branches            173315                       # Number of branches committed
system.switch_cpus0.commit.fp_insts                 0                       # Number of committed floating point instructions.
system.switch_cpus0.commit.int_insts           988112                       # Number of committed integer instructions.
system.switch_cpus0.commit.function_calls        14525                       # Number of function calls committed.
system.switch_cpus0.commit.bw_lim_events        35559                       # number cycles where commit BW limit reached
system.switch_cpus0.commit.bw_limited               0                       # number of insts not committed due to BW limits
system.switch_cpus0.rob.rob_reads             3980311                       # The number of ROB reads
system.switch_cpus0.rob.rob_writes            2840601                       # The number of ROB writes
system.switch_cpus0.timesIdled                  50692                       # Number of times that the entire CPU went into an idle state and unscheduled itself
system.switch_cpus0.idleCycles                 209649                       # Total number of cycles that the CPU has spent unscheduled due to idling
system.switch_cpus0.committedInsts            1000001                       # Number of Instructions Simulated
system.switch_cpus0.committedOps              1129674                       # Number of Ops (including micro ops) Simulated
system.switch_cpus0.committedInsts_total      1000001                       # Number of Instructions Simulated
system.switch_cpus0.cpi                      2.869233                       # CPI: Cycles Per Instruction
system.switch_cpus0.cpi_total                2.869233                       # CPI: Total CPI of All Threads
system.switch_cpus0.ipc                      0.348525                       # IPC: Instructions Per Cycle
system.switch_cpus0.ipc_total                0.348525                       # IPC: Total IPC of All Threads
system.switch_cpus0.int_regfile_reads         5949706                       # number of integer regfile reads
system.switch_cpus0.int_regfile_writes        1655785                       # number of integer regfile writes
system.switch_cpus0.misc_regfile_reads        1486538                       # number of misc regfile reads
system.switch_cpus0.misc_regfile_writes           198                       # number of misc regfile writes
system.switch_cpus1.dtb.inst_hits                   0                       # ITB inst hits
system.switch_cpus1.dtb.inst_misses                 0                       # ITB inst misses
system.switch_cpus1.dtb.read_hits                   0                       # DTB read hits
system.switch_cpus1.dtb.read_misses                 0                       # DTB read misses
system.switch_cpus1.dtb.write_hits                  0                       # DTB write hits
system.switch_cpus1.dtb.write_misses                0                       # DTB write misses
system.switch_cpus1.dtb.flush_tlb                   0                       # Number of times complete TLB was flushed
system.switch_cpus1.dtb.flush_tlb_mva               0                       # Number of times TLB was flushed by MVA
system.switch_cpus1.dtb.flush_tlb_mva_asid            0                       # Number of times TLB was flushed by MVA & ASID
system.switch_cpus1.dtb.flush_tlb_asid              0                       # Number of times TLB was flushed by ASID
system.switch_cpus1.dtb.flush_entries               0                       # Number of entries that have been flushed from TLB
system.switch_cpus1.dtb.align_faults                0                       # Number of TLB faults due to alignment restrictions
system.switch_cpus1.dtb.prefetch_faults             0                       # Number of TLB faults due to prefetch
system.switch_cpus1.dtb.domain_faults               0                       # Number of TLB faults due to domain restrictions
system.switch_cpus1.dtb.perms_faults                0                       # Number of TLB faults due to permissions restrictions
system.switch_cpus1.dtb.read_accesses               0                       # DTB read accesses
system.switch_cpus1.dtb.write_accesses              0                       # DTB write accesses
system.switch_cpus1.dtb.inst_accesses               0                       # ITB inst accesses
system.switch_cpus1.dtb.hits                        0                       # DTB hits
system.switch_cpus1.dtb.misses                      0                       # DTB misses
system.switch_cpus1.dtb.accesses                    0                       # DTB accesses
system.switch_cpus1.itb.inst_hits                   0                       # ITB inst hits
system.switch_cpus1.itb.inst_misses                 0                       # ITB inst misses
system.switch_cpus1.itb.read_hits                   0                       # DTB read hits
system.switch_cpus1.itb.read_misses                 0                       # DTB read misses
system.switch_cpus1.itb.write_hits                  0                       # DTB write hits
system.switch_cpus1.itb.write_misses                0                       # DTB write misses
system.switch_cpus1.itb.flush_tlb                   0                       # Number of times complete TLB was flushed
system.switch_cpus1.itb.flush_tlb_mva               0                       # Number of times TLB was flushed by MVA
system.switch_cpus1.itb.flush_tlb_mva_asid            0                       # Number of times TLB was flushed by MVA & ASID
system.switch_cpus1.itb.flush_tlb_asid              0                       # Number of times TLB was flushed by ASID
system.switch_cpus1.itb.flush_entries               0                       # Number of entries that have been flushed from TLB
system.switch_cpus1.itb.align_faults                0                       # Number of TLB faults due to alignment restrictions
system.switch_cpus1.itb.prefetch_faults             0                       # Number of TLB faults due to prefetch
system.switch_cpus1.itb.domain_faults               0                       # Number of TLB faults due to domain restrictions
system.switch_cpus1.itb.perms_faults                0                       # Number of TLB faults due to permissions restrictions
system.switch_cpus1.itb.read_accesses               0                       # DTB read accesses
system.switch_cpus1.itb.write_accesses              0                       # DTB write accesses
system.switch_cpus1.itb.inst_accesses               0                       # ITB inst accesses
system.switch_cpus1.itb.hits                        0                       # DTB hits
system.switch_cpus1.itb.misses                      0                       # DTB misses
system.switch_cpus1.itb.accesses                    0                       # DTB accesses
system.cpu1.workload.num_syscalls                   0                       # Number of system calls
system.switch_cpus1.numCycles                 2869236                       # number of cpu cycles simulated
system.switch_cpus1.numWorkItemsStarted             0                       # number of work items this cpu started
system.switch_cpus1.numWorkItemsCompleted            0                       # number of work items this cpu completed
system.switch_cpus1.BPredUnit.lookups          232907                       # Number of BP lookups
system.switch_cpus1.BPredUnit.condPredicted       191240                       # Number of conditional branches predicted
system.switch_cpus1.BPredUnit.condIncorrect        24823                       # Number of conditional branches incorrect
system.switch_cpus1.BPredUnit.BTBLookups        96196                       # Number of BTB lookups
system.switch_cpus1.BPredUnit.BTBHits           89711                       # Number of BTB hits
system.switch_cpus1.BPredUnit.BTBCorrect            0                       # Number of correct BTB predictions (this stat may not work properly.
system.switch_cpus1.BPredUnit.usedRAS           23339                       # Number of times the RAS was used to get a target.
system.switch_cpus1.BPredUnit.RASInCorrect         1085                       # Number of incorrect RAS predictions.
system.switch_cpus1.fetch.icacheStallCycles      2235070                       # Number of cycles fetch is stalled on an Icache miss
system.switch_cpus1.fetch.Insts               1329636                       # Number of instructions fetch has processed
system.switch_cpus1.fetch.Branches             232907                       # Number of branches that fetch encountered
system.switch_cpus1.fetch.predictedBranches       113050                       # Number of branches that fetch has predicted taken
system.switch_cpus1.fetch.Cycles               291381                       # Number of cycles fetch has run and was not squashing or blocked
system.switch_cpus1.fetch.SquashCycles          70692                       # Number of cycles fetch has spent squashing
system.switch_cpus1.fetch.BlockedCycles         64398                       # Number of cycles fetch has spent blocked
system.switch_cpus1.fetch.CacheLines           139357                       # Number of cache lines fetched
system.switch_cpus1.fetch.IcacheSquashes        24526                       # Number of outstanding Icache misses that were squashed
system.switch_cpus1.fetch.rateDist::samples      2636334                       # Number of instructions fetched each cycle (Total)
system.switch_cpus1.fetch.rateDist::mean     0.616661                       # Number of instructions fetched each cycle (Total)
system.switch_cpus1.fetch.rateDist::stdev     1.969956                       # Number of instructions fetched each cycle (Total)
system.switch_cpus1.fetch.rateDist::underflows            0      0.00%      0.00% # Number of instructions fetched each cycle (Total)
system.switch_cpus1.fetch.rateDist::0         2344953     88.95%     88.95% # Number of instructions fetched each cycle (Total)
system.switch_cpus1.fetch.rateDist::1           30825      1.17%     90.12% # Number of instructions fetched each cycle (Total)
system.switch_cpus1.fetch.rateDist::2           37073      1.41%     91.52% # Number of instructions fetched each cycle (Total)
system.switch_cpus1.fetch.rateDist::3           19750      0.75%     92.27% # Number of instructions fetched each cycle (Total)
system.switch_cpus1.fetch.rateDist::4           22301      0.85%     93.12% # Number of instructions fetched each cycle (Total)
system.switch_cpus1.fetch.rateDist::5           12954      0.49%     93.61% # Number of instructions fetched each cycle (Total)
system.switch_cpus1.fetch.rateDist::6            8855      0.34%     93.95% # Number of instructions fetched each cycle (Total)
system.switch_cpus1.fetch.rateDist::7           22585      0.86%     94.80% # Number of instructions fetched each cycle (Total)
system.switch_cpus1.fetch.rateDist::8          137038      5.20%    100.00% # Number of instructions fetched each cycle (Total)
system.switch_cpus1.fetch.rateDist::overflows            0      0.00%    100.00% # Number of instructions fetched each cycle (Total)
system.switch_cpus1.fetch.rateDist::min_value            0                       # Number of instructions fetched each cycle (Total)
system.switch_cpus1.fetch.rateDist::max_value            8                       # Number of instructions fetched each cycle (Total)
system.switch_cpus1.fetch.rateDist::total      2636334                       # Number of instructions fetched each cycle (Total)
system.switch_cpus1.fetch.branchRate         0.081174                       # Number of branch fetches per cycle
system.switch_cpus1.fetch.rate               0.463411                       # Number of inst fetches per cycle
system.switch_cpus1.decode.IdleCycles         2216536                       # Number of cycles decode is idle
system.switch_cpus1.decode.BlockedCycles        83566                       # Number of cycles decode is blocked
system.switch_cpus1.decode.RunCycles           288742                       # Number of cycles decode is running
system.switch_cpus1.decode.UnblockCycles         2377                       # Number of cycles decode is unblocking
system.switch_cpus1.decode.SquashCycles         45104                       # Number of cycles decode is squashing
system.switch_cpus1.decode.BranchResolved        37393                       # Number of times decode resolved a branch
system.switch_cpus1.decode.BranchMispred          381                       # Number of times decode detected a branch misprediction
system.switch_cpus1.decode.DecodedInsts       1620721                       # Number of instructions handled by decode
system.switch_cpus1.decode.SquashedInsts         2134                       # Number of squashed instructions handled by decode
system.switch_cpus1.rename.SquashCycles         45104                       # Number of cycles rename is squashing
system.switch_cpus1.rename.IdleCycles         2220523                       # Number of cycles rename is idle
system.switch_cpus1.rename.BlockCycles          21473                       # Number of cycles rename is blocking
system.switch_cpus1.rename.serializeStallCycles        51768                       # count of cycles rename stalled for serializing inst
system.switch_cpus1.rename.RunCycles           287212                       # Number of cycles rename is running
system.switch_cpus1.rename.UnblockCycles        10246                       # Number of cycles rename is unblocking
system.switch_cpus1.rename.RenamedInsts       1618501                       # Number of instructions processed by rename
system.switch_cpus1.rename.ROBFullEvents            1                       # Number of times rename has blocked due to ROB full
system.switch_cpus1.rename.IQFullEvents          2291                       # Number of times rename has blocked due to IQ full
system.switch_cpus1.rename.LSQFullEvents         4917                       # Number of times rename has blocked due to LSQ full
system.switch_cpus1.rename.FullRegisterEvents           28                       # Number of times there has been no free registers
system.switch_cpus1.rename.RenamedOperands      2253267                       # Number of destination operands rename has renamed
system.switch_cpus1.rename.RenameLookups      7533458                       # Number of register rename lookups that rename has made
system.switch_cpus1.rename.int_rename_lookups      7533458                       # Number of integer rename lookups
system.switch_cpus1.rename.CommittedMaps      1894796                       # Number of HB maps that are committed
system.switch_cpus1.rename.UndoneMaps          358462                       # Number of HB maps that are undone due to squashing
system.switch_cpus1.rename.serializingInsts          418                       # count of serializing insts renamed
system.switch_cpus1.rename.tempSerializingInsts          233                       # count of temporary serializing insts renamed
system.switch_cpus1.rename.skidInsts            29445                       # count of insts added to the skid buffer
system.switch_cpus1.memDep0.insertedLoads       153989                       # Number of loads inserted to the mem dependence unit.
system.switch_cpus1.memDep0.insertedStores        83224                       # Number of stores inserted to the mem dependence unit.
system.switch_cpus1.memDep0.conflictingLoads         1886                       # Number of conflicting loads.
system.switch_cpus1.memDep0.conflictingStores        17102                       # Number of conflicting stores.
system.switch_cpus1.iq.iqInstsAdded           1614526                       # Number of instructions added to the IQ (excludes non-spec)
system.switch_cpus1.iq.iqNonSpecInstsAdded          419                       # Number of non-speculative instructions added to the IQ
system.switch_cpus1.iq.iqInstsIssued          1516501                       # Number of instructions issued
system.switch_cpus1.iq.iqSquashedInstsIssued         1688                       # Number of squashed instructions issued
system.switch_cpus1.iq.iqSquashedInstsExamined       217898                       # Number of squashed instructions iterated over during squash; mainly for profiling
system.switch_cpus1.iq.iqSquashedOperandsExamined       507456                       # Number of squashed operands that are examined and possibly removed from graph
system.switch_cpus1.iq.iqSquashedNonSpecRemoved           47                       # Number of squashed non-spec instructions that were removed
system.switch_cpus1.iq.issued_per_cycle::samples      2636334                       # Number of insts issued each cycle
system.switch_cpus1.iq.issued_per_cycle::mean     0.575231                       # Number of insts issued each cycle
system.switch_cpus1.iq.issued_per_cycle::stdev     1.266108                       # Number of insts issued each cycle
system.switch_cpus1.iq.issued_per_cycle::underflows            0      0.00%      0.00% # Number of insts issued each cycle
system.switch_cpus1.iq.issued_per_cycle::0      1997061     75.75%     75.75% # Number of insts issued each cycle
system.switch_cpus1.iq.issued_per_cycle::1       257832      9.78%     85.53% # Number of insts issued each cycle
system.switch_cpus1.iq.issued_per_cycle::2       137878      5.23%     90.76% # Number of insts issued each cycle
system.switch_cpus1.iq.issued_per_cycle::3        95605      3.63%     94.39% # Number of insts issued each cycle
system.switch_cpus1.iq.issued_per_cycle::4        83135      3.15%     97.54% # Number of insts issued each cycle
system.switch_cpus1.iq.issued_per_cycle::5        42322      1.61%     99.15% # Number of insts issued each cycle
system.switch_cpus1.iq.issued_per_cycle::6        10649      0.40%     99.55% # Number of insts issued each cycle
system.switch_cpus1.iq.issued_per_cycle::7         6762      0.26%     99.81% # Number of insts issued each cycle
system.switch_cpus1.iq.issued_per_cycle::8         5090      0.19%    100.00% # Number of insts issued each cycle
system.switch_cpus1.iq.issued_per_cycle::overflows            0      0.00%    100.00% # Number of insts issued each cycle
system.switch_cpus1.iq.issued_per_cycle::min_value            0                       # Number of insts issued each cycle
system.switch_cpus1.iq.issued_per_cycle::max_value            8                       # Number of insts issued each cycle
system.switch_cpus1.iq.issued_per_cycle::total      2636334                       # Number of insts issued each cycle
system.switch_cpus1.iq.fu_full::No_OpClass            0      0.00%      0.00% # attempts to use FU when none available
system.switch_cpus1.iq.fu_full::IntAlu            409     12.18%     12.18% # attempts to use FU when none available
system.switch_cpus1.iq.fu_full::IntMult             0      0.00%     12.18% # attempts to use FU when none available
system.switch_cpus1.iq.fu_full::IntDiv              0      0.00%     12.18% # attempts to use FU when none available
system.switch_cpus1.iq.fu_full::FloatAdd            0      0.00%     12.18% # attempts to use FU when none available
system.switch_cpus1.iq.fu_full::FloatCmp            0      0.00%     12.18% # attempts to use FU when none available
system.switch_cpus1.iq.fu_full::FloatCvt            0      0.00%     12.18% # attempts to use FU when none available
system.switch_cpus1.iq.fu_full::FloatMult            0      0.00%     12.18% # attempts to use FU when none available
system.switch_cpus1.iq.fu_full::FloatDiv            0      0.00%     12.18% # attempts to use FU when none available
system.switch_cpus1.iq.fu_full::FloatSqrt            0      0.00%     12.18% # attempts to use FU when none available
system.switch_cpus1.iq.fu_full::SimdAdd             0      0.00%     12.18% # attempts to use FU when none available
system.switch_cpus1.iq.fu_full::SimdAddAcc            0      0.00%     12.18% # attempts to use FU when none available
system.switch_cpus1.iq.fu_full::SimdAlu             0      0.00%     12.18% # attempts to use FU when none available
system.switch_cpus1.iq.fu_full::SimdCmp             0      0.00%     12.18% # attempts to use FU when none available
system.switch_cpus1.iq.fu_full::SimdCvt             0      0.00%     12.18% # attempts to use FU when none available
system.switch_cpus1.iq.fu_full::SimdMisc            0      0.00%     12.18% # attempts to use FU when none available
system.switch_cpus1.iq.fu_full::SimdMult            0      0.00%     12.18% # attempts to use FU when none available
system.switch_cpus1.iq.fu_full::SimdMultAcc            0      0.00%     12.18% # attempts to use FU when none available
system.switch_cpus1.iq.fu_full::SimdShift            0      0.00%     12.18% # attempts to use FU when none available
system.switch_cpus1.iq.fu_full::SimdShiftAcc            0      0.00%     12.18% # attempts to use FU when none available
system.switch_cpus1.iq.fu_full::SimdSqrt            0      0.00%     12.18% # attempts to use FU when none available
system.switch_cpus1.iq.fu_full::SimdFloatAdd            0      0.00%     12.18% # attempts to use FU when none available
system.switch_cpus1.iq.fu_full::SimdFloatAlu            0      0.00%     12.18% # attempts to use FU when none available
system.switch_cpus1.iq.fu_full::SimdFloatCmp            0      0.00%     12.18% # attempts to use FU when none available
system.switch_cpus1.iq.fu_full::SimdFloatCvt            0      0.00%     12.18% # attempts to use FU when none available
system.switch_cpus1.iq.fu_full::SimdFloatDiv            0      0.00%     12.18% # attempts to use FU when none available
system.switch_cpus1.iq.fu_full::SimdFloatMisc            0      0.00%     12.18% # attempts to use FU when none available
system.switch_cpus1.iq.fu_full::SimdFloatMult            0      0.00%     12.18% # attempts to use FU when none available
system.switch_cpus1.iq.fu_full::SimdFloatMultAcc            0      0.00%     12.18% # attempts to use FU when none available
system.switch_cpus1.iq.fu_full::SimdFloatSqrt            0      0.00%     12.18% # attempts to use FU when none available
system.switch_cpus1.iq.fu_full::MemRead          1433     42.69%     54.87% # attempts to use FU when none available
system.switch_cpus1.iq.fu_full::MemWrite         1515     45.13%    100.00% # attempts to use FU when none available
system.switch_cpus1.iq.fu_full::IprAccess            0      0.00%    100.00% # attempts to use FU when none available
system.switch_cpus1.iq.fu_full::InstPrefetch            0      0.00%    100.00% # attempts to use FU when none available
system.switch_cpus1.iq.FU_type_0::No_OpClass            0      0.00%      0.00% # Type of FU issued
system.switch_cpus1.iq.FU_type_0::IntAlu      1271106     83.82%     83.82% # Type of FU issued
system.switch_cpus1.iq.FU_type_0::IntMult        23711      1.56%     85.38% # Type of FU issued
system.switch_cpus1.iq.FU_type_0::IntDiv            0      0.00%     85.38% # Type of FU issued
system.switch_cpus1.iq.FU_type_0::FloatAdd            0      0.00%     85.38% # Type of FU issued
system.switch_cpus1.iq.FU_type_0::FloatCmp            0      0.00%     85.38% # Type of FU issued
system.switch_cpus1.iq.FU_type_0::FloatCvt            0      0.00%     85.38% # Type of FU issued
system.switch_cpus1.iq.FU_type_0::FloatMult            0      0.00%     85.38% # Type of FU issued
system.switch_cpus1.iq.FU_type_0::FloatDiv            0      0.00%     85.38% # Type of FU issued
system.switch_cpus1.iq.FU_type_0::FloatSqrt            0      0.00%     85.38% # Type of FU issued
system.switch_cpus1.iq.FU_type_0::SimdAdd            0      0.00%     85.38% # Type of FU issued
system.switch_cpus1.iq.FU_type_0::SimdAddAcc            0      0.00%     85.38% # Type of FU issued
system.switch_cpus1.iq.FU_type_0::SimdAlu            0      0.00%     85.38% # Type of FU issued
system.switch_cpus1.iq.FU_type_0::SimdCmp            0      0.00%     85.38% # Type of FU issued
system.switch_cpus1.iq.FU_type_0::SimdCvt            0      0.00%     85.38% # Type of FU issued
[...]
system.cpu7.icache.ReadReq_avg_miss_latency::total       150978                       # average ReadReq miss latency
system.cpu7.icache.demand_avg_miss_latency::switch_cpus7.inst       150978                       # average overall miss latency
system.cpu7.icache.demand_avg_miss_latency::total       150978                       # average overall miss latency
system.cpu7.icache.overall_avg_miss_latency::switch_cpus7.inst       150978                       # average overall miss latency
system.cpu7.icache.overall_avg_miss_latency::total       150978                       # average overall miss latency
system.cpu7.icache.blocked_cycles::no_mshrs            0                       # number of cycles access was blocked
system.cpu7.icache.blocked_cycles::no_targets            0                       # number of cycles access was blocked
system.cpu7.icache.blocked::no_mshrs                0                       # number of cycles access was blocked
system.cpu7.icache.blocked::no_targets              0                       # number of cycles access was blocked
system.cpu7.icache.avg_blocked_cycles::no_mshrs          nan                       # average number of cycles each access was blocked
system.cpu7.icache.avg_blocked_cycles::no_targets          nan                       # average number of cycles each access was blocked
system.cpu7.icache.fast_writes                      0                       # number of fast writes performed
system.cpu7.icache.cache_copies                     0                       # number of cache copies performed
system.cpu7.icache.ReadReq_mshr_hits::switch_cpus7.inst           14                       # number of ReadReq MSHR hits
system.cpu7.icache.ReadReq_mshr_hits::total           14                       # number of ReadReq MSHR hits
system.cpu7.icache.demand_mshr_hits::switch_cpus7.inst           14                       # number of demand (read+write) MSHR hits
system.cpu7.icache.demand_mshr_hits::total           14                       # number of demand (read+write) MSHR hits
system.cpu7.icache.overall_mshr_hits::switch_cpus7.inst           14                       # number of overall MSHR hits
system.cpu7.icache.overall_mshr_hits::total           14                       # number of overall MSHR hits
system.cpu7.icache.ReadReq_mshr_misses::switch_cpus7.inst           29                       # number of ReadReq MSHR misses
system.cpu7.icache.ReadReq_mshr_misses::total           29                       # number of ReadReq MSHR misses
system.cpu7.icache.demand_mshr_misses::switch_cpus7.inst           29                       # number of demand (read+write) MSHR misses
system.cpu7.icache.demand_mshr_misses::total           29                       # number of demand (read+write) MSHR misses
system.cpu7.icache.overall_mshr_misses::switch_cpus7.inst           29                       # number of overall MSHR misses
system.cpu7.icache.overall_mshr_misses::total           29                       # number of overall MSHR misses
system.cpu7.icache.ReadReq_mshr_miss_latency::switch_cpus7.inst      4803143                       # number of ReadReq MSHR miss cycles
system.cpu7.icache.ReadReq_mshr_miss_latency::total      4803143                       # number of ReadReq MSHR miss cycles
system.cpu7.icache.demand_mshr_miss_latency::switch_cpus7.inst      4803143                       # number of demand (read+write) MSHR miss cycles
system.cpu7.icache.demand_mshr_miss_latency::total      4803143                       # number of demand (read+write) MSHR miss cycles
system.cpu7.icache.overall_mshr_miss_latency::switch_cpus7.inst      4803143                       # number of overall MSHR miss cycles
system.cpu7.icache.overall_mshr_miss_latency::total      4803143                       # number of overall MSHR miss cycles
system.cpu7.icache.ReadReq_mshr_miss_rate::switch_cpus7.inst     0.000211                       # mshr miss rate for ReadReq accesses
system.cpu7.icache.ReadReq_mshr_miss_rate::total     0.000211                       # mshr miss rate for ReadReq accesses
system.cpu7.icache.demand_mshr_miss_rate::switch_cpus7.inst     0.000211                       # mshr miss rate for demand accesses
system.cpu7.icache.demand_mshr_miss_rate::total     0.000211                       # mshr miss rate for demand accesses
system.cpu7.icache.overall_mshr_miss_rate::switch_cpus7.inst     0.000211                       # mshr miss rate for overall accesses
system.cpu7.icache.overall_mshr_miss_rate::total     0.000211                       # mshr miss rate for overall accesses
system.cpu7.icache.ReadReq_avg_mshr_miss_latency::switch_cpus7.inst 165625.620690                       # average ReadReq mshr miss latency
system.cpu7.icache.ReadReq_avg_mshr_miss_latency::total 165625.620690                       # average ReadReq mshr miss latency
system.cpu7.icache.demand_avg_mshr_miss_latency::switch_cpus7.inst 165625.620690                       # average overall mshr miss latency
system.cpu7.icache.demand_avg_mshr_miss_latency::total 165625.620690                       # average overall mshr miss latency
system.cpu7.icache.overall_avg_mshr_miss_latency::switch_cpus7.inst 165625.620690                       # average overall mshr miss latency
system.cpu7.icache.overall_avg_mshr_miss_latency::total 165625.620690                       # average overall mshr miss latency
system.cpu7.icache.no_allocate_misses               0                       # Number of misses that were no-allocate
system.cpu7.dcache.replacements                   935                       # number of replacements
system.cpu7.dcache.tagsinuse                      256                       # Cycle average of tags in use
system.cpu7.dcache.total_refs               332278789                       # Total number of references to valid blocks.
system.cpu7.dcache.sampled_refs                  1191                       # Sample count of references to valid blocks.
system.cpu7.dcache.avg_refs              278991.426532                       # Average number of references to valid blocks.
system.cpu7.dcache.warmup_cycle                     0                       # Cycle when the warmup percentage was hit.
system.cpu7.dcache.occ_blocks::switch_cpus7.data   106.639222                       # Average occupied blocks per requestor
system.cpu7.dcache.occ_blocks::cpu7.data   149.360778                       # Average occupied blocks per requestor
system.cpu7.dcache.occ_percent::switch_cpus7.data     0.416559                       # Average percentage of cache occupancy
system.cpu7.dcache.occ_percent::cpu7.data     0.583441                       # Average percentage of cache occupancy
system.cpu7.dcache.occ_percent::total               1                       # Average percentage of cache occupancy
system.cpu7.dcache.ReadReq_hits::switch_cpus7.data       351289                       # number of ReadReq hits
system.cpu7.dcache.ReadReq_hits::total         351289                       # number of ReadReq hits
system.cpu7.dcache.WriteReq_hits::switch_cpus7.data       191458                       # number of WriteReq hits
system.cpu7.dcache.WriteReq_hits::total        191458                       # number of WriteReq hits
system.cpu7.dcache.LoadLockedReq_hits::switch_cpus7.data           96                       # number of LoadLockedReq hits
system.cpu7.dcache.LoadLockedReq_hits::total           96                       # number of LoadLockedReq hits
system.cpu7.dcache.StoreCondReq_hits::switch_cpus7.data           94                       # number of StoreCondReq hits
system.cpu7.dcache.StoreCondReq_hits::total           94                       # number of StoreCondReq hits
system.cpu7.dcache.demand_hits::switch_cpus7.data       542747                       # number of demand (read+write) hits
system.cpu7.dcache.demand_hits::total          542747                       # number of demand (read+write) hits
system.cpu7.dcache.overall_hits::switch_cpus7.data       542747                       # number of overall hits
system.cpu7.dcache.overall_hits::total         542747                       # number of overall hits
system.cpu7.dcache.ReadReq_misses::switch_cpus7.data         3231                       # number of ReadReq misses
system.cpu7.dcache.ReadReq_misses::total         3231                       # number of ReadReq misses
system.cpu7.dcache.WriteReq_misses::switch_cpus7.data            9                       # number of WriteReq misses
system.cpu7.dcache.WriteReq_misses::total            9                       # number of WriteReq misses
system.cpu7.dcache.demand_misses::switch_cpus7.data         3240                       # number of demand (read+write) misses
system.cpu7.dcache.demand_misses::total          3240                       # number of demand (read+write) misses
system.cpu7.dcache.overall_misses::switch_cpus7.data         3240                       # number of overall misses
system.cpu7.dcache.overall_misses::total         3240                       # number of overall misses
system.cpu7.dcache.ReadReq_miss_latency::switch_cpus7.data    356593109                       # number of ReadReq miss cycles
system.cpu7.dcache.ReadReq_miss_latency::total    356593109                       # number of ReadReq miss cycles
system.cpu7.dcache.WriteReq_miss_latency::switch_cpus7.data       933777                       # number of WriteReq miss cycles
system.cpu7.dcache.WriteReq_miss_latency::total       933777                       # number of WriteReq miss cycles
system.cpu7.dcache.demand_miss_latency::switch_cpus7.data    357526886                       # number of demand (read+write) miss cycles
system.cpu7.dcache.demand_miss_latency::total    357526886                       # number of demand (read+write) miss cycles
system.cpu7.dcache.overall_miss_latency::switch_cpus7.data    357526886                       # number of overall miss cycles
system.cpu7.dcache.overall_miss_latency::total    357526886                       # number of overall miss cycles
system.cpu7.dcache.ReadReq_accesses::switch_cpus7.data       354520                       # number of ReadReq accesses(hits+misses)
system.cpu7.dcache.ReadReq_accesses::total       354520                       # number of ReadReq accesses(hits+misses)
system.cpu7.dcache.WriteReq_accesses::switch_cpus7.data       191467                       # number of WriteReq accesses(hits+misses)
system.cpu7.dcache.WriteReq_accesses::total       191467                       # number of WriteReq accesses(hits+misses)
system.cpu7.dcache.LoadLockedReq_accesses::switch_cpus7.data           96                       # number of LoadLockedReq accesses(hits+misses)
system.cpu7.dcache.LoadLockedReq_accesses::total           96                       # number of LoadLockedReq accesses(hits+misses)
system.cpu7.dcache.StoreCondReq_accesses::switch_cpus7.data           94                       # number of StoreCondReq accesses(hits+misses)
system.cpu7.dcache.StoreCondReq_accesses::total           94                       # number of StoreCondReq accesses(hits+misses)
system.cpu7.dcache.demand_accesses::switch_cpus7.data       545987                       # number of demand (read+write) accesses
system.cpu7.dcache.demand_accesses::total       545987                       # number of demand (read+write) accesses
system.cpu7.dcache.overall_accesses::switch_cpus7.data       545987                       # number of overall (read+write) accesses
system.cpu7.dcache.overall_accesses::total       545987                       # number of overall (read+write) accesses
system.cpu7.dcache.ReadReq_miss_rate::switch_cpus7.data     0.009114                       # miss rate for ReadReq accesses
system.cpu7.dcache.ReadReq_miss_rate::total     0.009114                       # miss rate for ReadReq accesses
system.cpu7.dcache.WriteReq_miss_rate::switch_cpus7.data     0.000047                       # miss rate for WriteReq accesses
system.cpu7.dcache.WriteReq_miss_rate::total     0.000047                       # miss rate for WriteReq accesses
system.cpu7.dcache.demand_miss_rate::switch_cpus7.data     0.005934                       # miss rate for demand accesses
system.cpu7.dcache.demand_miss_rate::total     0.005934                       # miss rate for demand accesses
system.cpu7.dcache.overall_miss_rate::switch_cpus7.data     0.005934                       # miss rate for overall accesses
system.cpu7.dcache.overall_miss_rate::total     0.005934                       # miss rate for overall accesses
system.cpu7.dcache.ReadReq_avg_miss_latency::switch_cpus7.data 110366.174249                       # average ReadReq miss latency
system.cpu7.dcache.ReadReq_avg_miss_latency::total 110366.174249                       # average ReadReq miss latency
system.cpu7.dcache.WriteReq_avg_miss_latency::switch_cpus7.data       103753                       # average WriteReq miss latency
system.cpu7.dcache.WriteReq_avg_miss_latency::total       103753                       # average WriteReq miss latency
system.cpu7.dcache.demand_avg_miss_latency::switch_cpus7.data 110347.804321                       # average overall miss latency
system.cpu7.dcache.demand_avg_miss_latency::total 110347.804321                       # average overall miss latency
system.cpu7.dcache.overall_avg_miss_latency::switch_cpus7.data 110347.804321                       # average overall miss latency
system.cpu7.dcache.overall_avg_miss_latency::total 110347.804321                       # average overall miss latency
system.cpu7.dcache.blocked_cycles::no_mshrs            0                       # number of cycles access was blocked
system.cpu7.dcache.blocked_cycles::no_targets            0                       # number of cycles access was blocked
system.cpu7.dcache.blocked::no_mshrs                0                       # number of cycles access was blocked
system.cpu7.dcache.blocked::no_targets              0                       # number of cycles access was blocked
system.cpu7.dcache.avg_blocked_cycles::no_mshrs          nan                       # average number of cycles each access was blocked
system.cpu7.dcache.avg_blocked_cycles::no_targets          nan                       # average number of cycles each access was blocked
system.cpu7.dcache.fast_writes                      0                       # number of fast writes performed
system.cpu7.dcache.cache_copies                     0                       # number of cache copies performed
system.cpu7.dcache.writebacks::writebacks          241                       # number of writebacks
system.cpu7.dcache.writebacks::total              241                       # number of writebacks
system.cpu7.dcache.ReadReq_mshr_hits::switch_cpus7.data         2299                       # number of ReadReq MSHR hits
system.cpu7.dcache.ReadReq_mshr_hits::total         2299                       # number of ReadReq MSHR hits
system.cpu7.dcache.WriteReq_mshr_hits::switch_cpus7.data            6                       # number of WriteReq MSHR hits
system.cpu7.dcache.WriteReq_mshr_hits::total            6                       # number of WriteReq MSHR hits
system.cpu7.dcache.demand_mshr_hits::switch_cpus7.data         2305                       # number of demand (read+write) MSHR hits
system.cpu7.dcache.demand_mshr_hits::total         2305                       # number of demand (read+write) MSHR hits
system.cpu7.dcache.overall_mshr_hits::switch_cpus7.data         2305                       # number of overall MSHR hits
system.cpu7.dcache.overall_mshr_hits::total         2305                       # number of overall MSHR hits
system.cpu7.dcache.ReadReq_mshr_misses::switch_cpus7.data          932                       # number of ReadReq MSHR misses
system.cpu7.dcache.ReadReq_mshr_misses::total          932                       # number of ReadReq MSHR misses
system.cpu7.dcache.WriteReq_mshr_misses::switch_cpus7.data            3                       # number of WriteReq MSHR misses
system.cpu7.dcache.WriteReq_mshr_misses::total            3                       # number of WriteReq MSHR misses
system.cpu7.dcache.demand_mshr_misses::switch_cpus7.data          935                       # number of demand (read+write) MSHR misses
system.cpu7.dcache.demand_mshr_misses::total          935                       # number of demand (read+write) MSHR misses
system.cpu7.dcache.overall_mshr_misses::switch_cpus7.data          935                       # number of overall MSHR misses
system.cpu7.dcache.overall_mshr_misses::total          935                       # number of overall MSHR misses
system.cpu7.dcache.ReadReq_mshr_miss_latency::switch_cpus7.data     93891689                       # number of ReadReq MSHR miss cycles
system.cpu7.dcache.ReadReq_mshr_miss_latency::total     93891689                       # number of ReadReq MSHR miss cycles
system.cpu7.dcache.WriteReq_mshr_miss_latency::switch_cpus7.data       278201                       # number of WriteReq MSHR miss cycles
system.cpu7.dcache.WriteReq_mshr_miss_latency::total       278201                       # number of WriteReq MSHR miss cycles
system.cpu7.dcache.demand_mshr_miss_latency::switch_cpus7.data     94169890                       # number of demand (read+write) MSHR miss cycles
system.cpu7.dcache.demand_mshr_miss_latency::total     94169890                       # number of demand (read+write) MSHR miss cycles
system.cpu7.dcache.overall_mshr_miss_latency::switch_cpus7.data     94169890                       # number of overall MSHR miss cycles
system.cpu7.dcache.overall_mshr_miss_latency::total     94169890                       # number of overall MSHR miss cycles
system.cpu7.dcache.ReadReq_mshr_miss_rate::switch_cpus7.data     0.002629                       # mshr miss rate for ReadReq accesses
system.cpu7.dcache.ReadReq_mshr_miss_rate::total     0.002629                       # mshr miss rate for ReadReq accesses
system.cpu7.dcache.WriteReq_mshr_miss_rate::switch_cpus7.data     0.000016                       # mshr miss rate for WriteReq accesses
system.cpu7.dcache.WriteReq_mshr_miss_rate::total     0.000016                       # mshr miss rate for WriteReq accesses
system.cpu7.dcache.demand_mshr_miss_rate::switch_cpus7.data     0.001712                       # mshr miss rate for demand accesses
system.cpu7.dcache.demand_mshr_miss_rate::total     0.001712                       # mshr miss rate for demand accesses
system.cpu7.dcache.overall_mshr_miss_rate::switch_cpus7.data     0.001712                       # mshr miss rate for overall accesses
system.cpu7.dcache.overall_mshr_miss_rate::total     0.001712                       # mshr miss rate for overall accesses
system.cpu7.dcache.ReadReq_avg_mshr_miss_latency::switch_cpus7.data 100742.155579                       # average ReadReq mshr miss latency
system.cpu7.dcache.ReadReq_avg_mshr_miss_latency::total 100742.155579                       # average ReadReq mshr miss latency
system.cpu7.dcache.WriteReq_avg_mshr_miss_latency::switch_cpus7.data 92733.666667                       # average WriteReq mshr miss latency
system.cpu7.dcache.WriteReq_avg_mshr_miss_latency::total 92733.666667                       # average WriteReq mshr miss latency
system.cpu7.dcache.demand_avg_mshr_miss_latency::switch_cpus7.data 100716.459893                       # average overall mshr miss latency
system.cpu7.dcache.demand_avg_mshr_miss_latency::total 100716.459893                       # average overall mshr miss latency
system.cpu7.dcache.overall_avg_mshr_miss_latency::switch_cpus7.data 100716.459893                       # average overall mshr miss latency
system.cpu7.dcache.overall_avg_mshr_miss_latency::total 100716.459893                       # average overall mshr miss latency
system.cpu7.dcache.no_allocate_misses               0                       # Number of misses that were no-allocate

---------- End Simulation Statistics   ----------
