
---------- Begin Simulation Statistics ----------
sim_seconds                                  0.037053                       # Number of seconds simulated
sim_ticks                                 37053275592                       # Number of ticks simulated
final_tick                               564019638777                       # Number of ticks from beginning of simulation (restored from checkpoints and never reset)
sim_freq                                 1000000000000                       # Frequency of simulated ticks
host_inst_rate                                 289939                       # Simulator instruction rate (inst/s)
host_op_rate                                   365709                       # Simulator op (including micro ops) rate (op/s)
host_tick_rate                                2435180                       # Simulator tick rate (ticks/s)
host_mem_usage                               16935332                       # Number of bytes of host memory used
host_seconds                                 15215.83                       # Real time elapsed on the host
sim_insts                                  4411668909                       # Number of instructions simulated
sim_ops                                    5564567047                       # Number of ops (including micro ops) simulated
system.physmem.bytes_read::switch_cpus0.inst         1792                       # Number of bytes read from this memory
system.physmem.bytes_read::switch_cpus0.data      1987840                       # Number of bytes read from this memory
system.physmem.bytes_read::switch_cpus1.inst         1920                       # Number of bytes read from this memory
system.physmem.bytes_read::switch_cpus1.data       416640                       # Number of bytes read from this memory
system.physmem.bytes_read::switch_cpus2.inst         2176                       # Number of bytes read from this memory
system.physmem.bytes_read::switch_cpus2.data       380928                       # Number of bytes read from this memory
system.physmem.bytes_read::switch_cpus3.inst         1664                       # Number of bytes read from this memory
system.physmem.bytes_read::switch_cpus3.data       866048                       # Number of bytes read from this memory
system.physmem.bytes_read::total              3659008                       # Number of bytes read from this memory
system.physmem.bytes_inst_read::switch_cpus0.inst         1792                       # Number of instructions bytes read from this memory
system.physmem.bytes_inst_read::switch_cpus1.inst         1920                       # Number of instructions bytes read from this memory
system.physmem.bytes_inst_read::switch_cpus2.inst         2176                       # Number of instructions bytes read from this memory
system.physmem.bytes_inst_read::switch_cpus3.inst         1664                       # Number of instructions bytes read from this memory
system.physmem.bytes_inst_read::total            7552                       # Number of instructions bytes read from this memory
system.physmem.bytes_written::writebacks      1640192                       # Number of bytes written to this memory
system.physmem.bytes_written::total           1640192                       # Number of bytes written to this memory
system.physmem.num_reads::switch_cpus0.inst           14                       # Number of read requests responded to by this memory
system.physmem.num_reads::switch_cpus0.data        15530                       # Number of read requests responded to by this memory
system.physmem.num_reads::switch_cpus1.inst           15                       # Number of read requests responded to by this memory
system.physmem.num_reads::switch_cpus1.data         3255                       # Number of read requests responded to by this memory
system.physmem.num_reads::switch_cpus2.inst           17                       # Number of read requests responded to by this memory
system.physmem.num_reads::switch_cpus2.data         2976                       # Number of read requests responded to by this memory
system.physmem.num_reads::switch_cpus3.inst           13                       # Number of read requests responded to by this memory
system.physmem.num_reads::switch_cpus3.data         6766                       # Number of read requests responded to by this memory
system.physmem.num_reads::total                 28586                       # Number of read requests responded to by this memory
system.physmem.num_writes::writebacks           12814                       # Number of write requests responded to by this memory
system.physmem.num_writes::functional               0                       # Number of write requests responded to by this memory
system.physmem.num_writes::interrupt                0                       # Number of write requests responded to by this memory
system.physmem.num_writes::switch_cpus0.dtb.walker            0                       # Number of write requests responded to by this memory
system.physmem.num_writes::switch_cpus0.itb.walker            0                       # Number of write requests responded to by this memory
system.physmem.num_writes::switch_cpus0.inst            0                       # Number of write requests responded to by this memory
system.physmem.num_writes::switch_cpus0.data            0                       # Number of write requests responded to by this memory
system.physmem.num_writes::switch_cpus1.dtb.walker            0                       # Number of write requests responded to by this memory
system.physmem.num_writes::switch_cpus1.itb.walker            0                       # Number of write requests responded to by this memory
system.physmem.num_writes::switch_cpus1.inst            0                       # Number of write requests responded to by this memory
system.physmem.num_writes::switch_cpus1.data            0                       # Number of write requests responded to by this memory
system.physmem.num_writes::switch_cpus2.dtb.walker            0                       # Number of write requests responded to by this memory
system.physmem.num_writes::switch_cpus2.itb.walker            0                       # Number of write requests responded to by this memory
system.physmem.num_writes::switch_cpus2.inst            0                       # Number of write requests responded to by this memory
system.physmem.num_writes::switch_cpus2.data            0                       # Number of write requests responded to by this memory
system.physmem.num_writes::switch_cpus3.dtb.walker            0                       # Number of write requests responded to by this memory
system.physmem.num_writes::switch_cpus3.itb.walker            0                       # Number of write requests responded to by this memory
system.physmem.num_writes::switch_cpus3.inst            0                       # Number of write requests responded to by this memory
system.physmem.num_writes::switch_cpus3.data            0                       # Number of write requests responded to by this memory
system.physmem.num_writes::cpu0.dtb.walker            0                       # Number of write requests responded to by this memory
system.physmem.num_writes::cpu0.itb.walker            0                       # Number of write requests responded to by this memory
system.physmem.num_writes::cpu0.inst                0                       # Number of write requests responded to by this memory
system.physmem.num_writes::cpu0.data                0                       # Number of write requests responded to by this memory
system.physmem.num_writes::cpu1.dtb.walker            0                       # Number of write requests responded to by this memory
system.physmem.num_writes::cpu1.itb.walker            0                       # Number of write requests responded to by this memory
system.physmem.num_writes::cpu1.inst                0                       # Number of write requests responded to by this memory
system.physmem.num_writes::cpu1.data                0                       # Number of write requests responded to by this memory
system.physmem.num_writes::cpu2.dtb.walker            0                       # Number of write requests responded to by this memory
system.physmem.num_writes::cpu2.itb.walker            0                       # Number of write requests responded to by this memory
system.physmem.num_writes::cpu2.inst                0                       # Number of write requests responded to by this memory
system.physmem.num_writes::cpu2.data                0                       # Number of write requests responded to by this memory
system.physmem.num_writes::cpu3.dtb.walker            0                       # Number of write requests responded to by this memory
system.physmem.num_writes::cpu3.itb.walker            0                       # Number of write requests responded to by this memory
system.physmem.num_writes::cpu3.inst                0                       # Number of write requests responded to by this memory
system.physmem.num_writes::cpu3.data                0                       # Number of write requests responded to by this memory
system.physmem.num_writes::total                12814                       # Number of write requests responded to by this memory
system.physmem.bw_read::switch_cpus0.inst        48363                       # Total read bandwidth from this memory (bytes/s)
system.physmem.bw_read::switch_cpus0.data     53648158                       # Total read bandwidth from this memory (bytes/s)
system.physmem.bw_read::switch_cpus1.inst        51817                       # Total read bandwidth from this memory (bytes/s)
system.physmem.bw_read::switch_cpus1.data     11244350                       # Total read bandwidth from this memory (bytes/s)
system.physmem.bw_read::switch_cpus2.inst        58726                       # Total read bandwidth from this memory (bytes/s)
system.physmem.bw_read::switch_cpus2.data     10280549                       # Total read bandwidth from this memory (bytes/s)
system.physmem.bw_read::switch_cpus3.inst        44908                       # Total read bandwidth from this memory (bytes/s)
system.physmem.bw_read::switch_cpus3.data     23373048                       # Total read bandwidth from this memory (bytes/s)
system.physmem.bw_read::total                98749920                       # Total read bandwidth from this memory (bytes/s)
system.physmem.bw_inst_read::switch_cpus0.inst        48363                       # Instruction read bandwidth from this memory (bytes/s)
system.physmem.bw_inst_read::switch_cpus1.inst        51817                       # Instruction read bandwidth from this memory (bytes/s)
system.physmem.bw_inst_read::switch_cpus2.inst        58726                       # Instruction read bandwidth from this memory (bytes/s)
system.physmem.bw_inst_read::switch_cpus3.inst        44908                       # Instruction read bandwidth from this memory (bytes/s)
system.physmem.bw_inst_read::total             203815                       # Instruction read bandwidth from this memory (bytes/s)
system.physmem.bw_write::writebacks          44265776                       # Write bandwidth from this memory (bytes/s)
system.physmem.bw_write::total               44265776                       # Write bandwidth from this memory (bytes/s)
system.physmem.bw_total::writebacks          44265776                       # Total bandwidth to/from this memory (bytes/s)
system.physmem.bw_total::switch_cpus0.inst        48363                       # Total bandwidth to/from this memory (bytes/s)
system.physmem.bw_total::switch_cpus0.data     53648158                       # Total bandwidth to/from this memory (bytes/s)
system.physmem.bw_total::switch_cpus1.inst        51817                       # Total bandwidth to/from this memory (bytes/s)
system.physmem.bw_total::switch_cpus1.data     11244350                       # Total bandwidth to/from this memory (bytes/s)
system.physmem.bw_total::switch_cpus2.inst        58726                       # Total bandwidth to/from this memory (bytes/s)
system.physmem.bw_total::switch_cpus2.data     10280549                       # Total bandwidth to/from this memory (bytes/s)
system.physmem.bw_total::switch_cpus3.inst        44908                       # Total bandwidth to/from this memory (bytes/s)
system.physmem.bw_total::switch_cpus3.data     23373048                       # Total bandwidth to/from this memory (bytes/s)
system.physmem.bw_total::total              143015696                       # Total bandwidth to/from this memory (bytes/s)
system.switch_cpus0.dtb.inst_hits                   0                       # ITB inst hits
system.switch_cpus0.dtb.inst_misses                 0                       # ITB inst misses
system.switch_cpus0.dtb.read_hits                   0                       # DTB read hits
system.switch_cpus0.dtb.read_misses                 0                       # DTB read misses
system.switch_cpus0.dtb.write_hits                  0                       # DTB write hits
system.switch_cpus0.dtb.write_misses                0                       # DTB write misses
system.switch_cpus0.dtb.flush_tlb                   0                       # Number of times complete TLB was flushed
system.switch_cpus0.dtb.flush_tlb_mva               0                       # Number of times TLB was flushed by MVA
system.switch_cpus0.dtb.flush_tlb_mva_asid            0                       # Number of times TLB was flushed by MVA & ASID
system.switch_cpus0.dtb.flush_tlb_asid              0                       # Number of times TLB was flushed by ASID
system.switch_cpus0.dtb.flush_entries               0                       # Number of entries that have been flushed from TLB
system.switch_cpus0.dtb.align_faults                0                       # Number of TLB faults due to alignment restrictions
system.switch_cpus0.dtb.prefetch_faults             0                       # Number of TLB faults due to prefetch
system.switch_cpus0.dtb.domain_faults               0                       # Number of TLB faults due to domain restrictions
system.switch_cpus0.dtb.perms_faults                0                       # Number of TLB faults due to permissions restrictions
system.switch_cpus0.dtb.read_accesses               0                       # DTB read accesses
system.switch_cpus0.dtb.write_accesses              0                       # DTB write accesses
system.switch_cpus0.dtb.inst_accesses               0                       # ITB inst accesses
system.switch_cpus0.dtb.hits                        0                       # DTB hits
system.switch_cpus0.dtb.misses                      0                       # DTB misses
system.switch_cpus0.dtb.accesses                    0                       # DTB accesses
system.switch_cpus0.itb.inst_hits                   0                       # ITB inst hits
system.switch_cpus0.itb.inst_misses                 0                       # ITB inst misses
system.switch_cpus0.itb.read_hits                   0                       # DTB read hits
system.switch_cpus0.itb.read_misses                 0                       # DTB read misses
system.switch_cpus0.itb.write_hits                  0                       # DTB write hits
system.switch_cpus0.itb.write_misses                0                       # DTB write misses
system.switch_cpus0.itb.flush_tlb                   0                       # Number of times complete TLB was flushed
system.switch_cpus0.itb.flush_tlb_mva               0                       # Number of times TLB was flushed by MVA
system.switch_cpus0.itb.flush_tlb_mva_asid            0                       # Number of times TLB was flushed by MVA & ASID
system.switch_cpus0.itb.flush_tlb_asid              0                       # Number of times TLB was flushed by ASID
system.switch_cpus0.itb.flush_entries               0                       # Number of entries that have been flushed from TLB
system.switch_cpus0.itb.align_faults                0                       # Number of TLB faults due to alignment restrictions
system.switch_cpus0.itb.prefetch_faults             0                       # Number of TLB faults due to prefetch
system.switch_cpus0.itb.domain_faults               0                       # Number of TLB faults due to domain restrictions
system.switch_cpus0.itb.perms_faults                0                       # Number of TLB faults due to permissions restrictions
system.switch_cpus0.itb.read_accesses               0                       # DTB read accesses
system.switch_cpus0.itb.write_accesses              0                       # DTB write accesses
system.switch_cpus0.itb.inst_accesses               0                       # ITB inst accesses
system.switch_cpus0.itb.hits                        0                       # DTB hits
system.switch_cpus0.itb.misses                      0                       # DTB misses
system.switch_cpus0.itb.accesses                    0                       # DTB accesses
system.cpu0.workload.num_syscalls                   0                       # Number of system calls
system.switch_cpus0.numCycles                88856777                       # number of cpu cycles simulated
system.switch_cpus0.numWorkItemsStarted             0                       # number of work items this cpu started
system.switch_cpus0.numWorkItemsCompleted            0                       # number of work items this cpu completed
system.switch_cpus0.BPredUnit.lookups        31080740                       # Number of BP lookups
system.switch_cpus0.BPredUnit.condPredicted     25257697                       # Number of conditional branches predicted
system.switch_cpus0.BPredUnit.condIncorrect      2118922                       # Number of conditional branches incorrect
system.switch_cpus0.BPredUnit.BTBLookups     13180482                       # Number of BTB lookups
system.switch_cpus0.BPredUnit.BTBHits        12153683                       # Number of BTB hits
system.switch_cpus0.BPredUnit.BTBCorrect            0                       # Number of correct BTB predictions (this stat may not work properly.
system.switch_cpus0.BPredUnit.usedRAS         3283226                       # Number of times the RAS was used to get a target.
system.switch_cpus0.BPredUnit.RASInCorrect        89759                       # Number of incorrect RAS predictions.
system.switch_cpus0.fetch.icacheStallCycles     31198249                       # Number of cycles fetch is stalled on an Icache miss
system.switch_cpus0.fetch.Insts             172314325                       # Number of instructions fetch has processed
system.switch_cpus0.fetch.Branches           31080740                       # Number of branches that fetch encountered
system.switch_cpus0.fetch.predictedBranches     15436909                       # Number of branches that fetch has predicted taken
system.switch_cpus0.fetch.Cycles             37916026                       # Number of cycles fetch has run and was not squashing or blocked
system.switch_cpus0.fetch.SquashCycles       11385187                       # Number of cycles fetch has spent squashing
system.switch_cpus0.fetch.BlockedCycles       7392888                       # Number of cycles fetch has spent blocked
system.switch_cpus0.fetch.CacheLines         15281798                       # Number of cache lines fetched
system.switch_cpus0.fetch.IcacheSquashes       912928                       # Number of outstanding Icache misses that were squashed
system.switch_cpus0.fetch.rateDist::samples     85726004                       # Number of instructions fetched each cycle (Total)
system.switch_cpus0.fetch.rateDist::mean     2.483699                       # Number of instructions fetched each cycle (Total)
system.switch_cpus0.fetch.rateDist::stdev     3.296589                       # Number of instructions fetched each cycle (Total)
system.switch_cpus0.fetch.rateDist::underflows            0      0.00%      0.00% # Number of instructions fetched each cycle (Total)
system.switch_cpus0.fetch.rateDist::0        47809978     55.77%     55.77% # Number of instructions fetched each cycle (Total)
system.switch_cpus0.fetch.rateDist::1         3322831      3.88%     59.65% # Number of instructions fetched each cycle (Total)
system.switch_cpus0.fetch.rateDist::2         2701699      3.15%     62.80% # Number of instructions fetched each cycle (Total)
system.switch_cpus0.fetch.rateDist::3         6547240      7.64%     70.44% # Number of instructions fetched each cycle (Total)
system.switch_cpus0.fetch.rateDist::4         1786876      2.08%     72.52% # Number of instructions fetched each cycle (Total)
system.switch_cpus0.fetch.rateDist::5         2284103      2.66%     75.18% # Number of instructions fetched each cycle (Total)
system.switch_cpus0.fetch.rateDist::6         1640874      1.91%     77.10% # Number of instructions fetched each cycle (Total)
system.switch_cpus0.fetch.rateDist::7          922820      1.08%     78.18% # Number of instructions fetched each cycle (Total)
system.switch_cpus0.fetch.rateDist::8        18709583     21.82%    100.00% # Number of instructions fetched each cycle (Total)
system.switch_cpus0.fetch.rateDist::overflows            0      0.00%    100.00% # Number of instructions fetched each cycle (Total)
system.switch_cpus0.fetch.rateDist::min_value            0                       # Number of instructions fetched each cycle (Total)
system.switch_cpus0.fetch.rateDist::max_value            8                       # Number of instructions fetched each cycle (Total)
system.switch_cpus0.fetch.rateDist::total     85726004                       # Number of instructions fetched each cycle (Total)
system.switch_cpus0.fetch.branchRate         0.349785                       # Number of branch fetches per cycle
system.switch_cpus0.fetch.rate               1.939237                       # Number of inst fetches per cycle
system.switch_cpus0.decode.IdleCycles        32637546                       # Number of cycles decode is idle
system.switch_cpus0.decode.BlockedCycles      7203776                       # Number of cycles decode is blocked
system.switch_cpus0.decode.RunCycles         36461908                       # Number of cycles decode is running
system.switch_cpus0.decode.UnblockCycles       246145                       # Number of cycles decode is unblocking
system.switch_cpus0.decode.SquashCycles       9176627                       # Number of cycles decode is squashing
system.switch_cpus0.decode.BranchResolved      5311246                       # Number of times decode resolved a branch
system.switch_cpus0.decode.BranchMispred        42568                       # Number of times decode detected a branch misprediction
system.switch_cpus0.decode.DecodedInsts     206049443                       # Number of instructions handled by decode
system.switch_cpus0.decode.SquashedInsts        82005                       # Number of squashed instructions handled by decode
system.switch_cpus0.rename.SquashCycles       9176627                       # Number of cycles rename is squashing
system.switch_cpus0.rename.IdleCycles        35028472                       # Number of cycles rename is idle
system.switch_cpus0.rename.BlockCycles        1472297                       # Number of cycles rename is blocking
system.switch_cpus0.rename.serializeStallCycles      2205078                       # count of cycles rename stalled for serializing inst
system.switch_cpus0.rename.RunCycles         34260558                       # Number of cycles rename is running
system.switch_cpus0.rename.UnblockCycles      3582970                       # Number of cycles rename is unblocking
system.switch_cpus0.rename.RenamedInsts     198764134                       # Number of instructions processed by rename
system.switch_cpus0.rename.ROBFullEvents        30955                       # Number of times rename has blocked due to ROB full
system.switch_cpus0.rename.IQFullEvents       1486159                       # Number of times rename has blocked due to IQ full
system.switch_cpus0.rename.LSQFullEvents      1113516                       # Number of times rename has blocked due to LSQ full
system.switch_cpus0.rename.FullRegisterEvents         1826                       # Number of times there has been no free registers
system.switch_cpus0.rename.RenamedOperands    278205900                       # Number of destination operands rename has renamed
system.switch_cpus0.rename.RenameLookups    927953997                       # Number of register rename lookups that rename has made
system.switch_cpus0.rename.int_rename_lookups    927953997                       # Number of integer rename lookups
system.switch_cpus0.rename.CommittedMaps    170695504                       # Number of HB maps that are committed
system.switch_cpus0.rename.UndoneMaps       107510293                       # Number of HB maps that are undone due to squashing
system.switch_cpus0.rename.serializingInsts        41072                       # count of serializing insts renamed
system.switch_cpus0.rename.tempSerializingInsts        23245                       # count of temporary serializing insts renamed
system.switch_cpus0.rename.skidInsts          9824346                       # count of insts added to the skid buffer
system.switch_cpus0.memDep0.insertedLoads     18540647                       # Number of loads inserted to the mem dependence unit.
system.switch_cpus0.memDep0.insertedStores      9439764                       # Number of stores inserted to the mem dependence unit.
system.switch_cpus0.memDep0.conflictingLoads       148122                       # Number of conflicting loads.
system.switch_cpus0.memDep0.conflictingStores      3060357                       # Number of conflicting stores.
system.switch_cpus0.iq.iqInstsAdded         188011402                       # Number of instructions added to the IQ (excludes non-spec)
system.switch_cpus0.iq.iqNonSpecInstsAdded        39599                       # Number of non-speculative instructions added to the IQ
system.switch_cpus0.iq.iqInstsIssued        149371273                       # Number of instructions issued
system.switch_cpus0.iq.iqSquashedInstsIssued       293063                       # Number of squashed instructions issued
system.switch_cpus0.iq.iqSquashedInstsExamined     64904915                       # Number of squashed instructions iterated over during squash; mainly for profiling
system.switch_cpus0.iq.iqSquashedOperandsExamined    198310996                       # Number of squashed operands that are examined and possibly removed from graph
system.switch_cpus0.iq.iqSquashedNonSpecRemoved         6531                       # Number of squashed non-spec instructions that were removed
system.switch_cpus0.iq.issued_per_cycle::samples     85726004                       # Number of insts issued each cycle
system.switch_cpus0.iq.issued_per_cycle::mean     1.742427                       # Number of insts issued each cycle
system.switch_cpus0.iq.issued_per_cycle::stdev     1.884826                       # Number of insts issued each cycle
system.switch_cpus0.iq.issued_per_cycle::underflows            0      0.00%      0.00% # Number of insts issued each cycle
system.switch_cpus0.iq.issued_per_cycle::0     30351760     35.41%     35.41% # Number of insts issued each cycle
system.switch_cpus0.iq.issued_per_cycle::1     18274924     21.32%     56.72% # Number of insts issued each cycle
system.switch_cpus0.iq.issued_per_cycle::2     11961544     13.95%     70.68% # Number of insts issued each cycle
system.switch_cpus0.iq.issued_per_cycle::3      8850578     10.32%     81.00% # Number of insts issued each cycle
system.switch_cpus0.iq.issued_per_cycle::4      7611991      8.88%     89.88% # Number of insts issued each cycle
system.switch_cpus0.iq.issued_per_cycle::5      3953980      4.61%     94.49% # Number of insts issued each cycle
system.switch_cpus0.iq.issued_per_cycle::6      3366079      3.93%     98.42% # Number of insts issued each cycle
system.switch_cpus0.iq.issued_per_cycle::7       633995      0.74%     99.16% # Number of insts issued each cycle
system.switch_cpus0.iq.issued_per_cycle::8       721153      0.84%    100.00% # Number of insts issued each cycle
system.switch_cpus0.iq.issued_per_cycle::overflows            0      0.00%    100.00% # Number of insts issued each cycle
system.switch_cpus0.iq.issued_per_cycle::min_value            0                       # Number of insts issued each cycle
system.switch_cpus0.iq.issued_per_cycle::max_value            8                       # Number of insts issued each cycle
system.switch_cpus0.iq.issued_per_cycle::total     85726004                       # Number of insts issued each cycle
system.switch_cpus0.iq.fu_full::No_OpClass            0      0.00%      0.00% # attempts to use FU when none available
system.switch_cpus0.iq.fu_full::IntAlu         874392     71.21%     71.21% # attempts to use FU when none available
system.switch_cpus0.iq.fu_full::IntMult             6      0.00%     71.21% # attempts to use FU when none available
system.switch_cpus0.iq.fu_full::IntDiv              0      0.00%     71.21% # attempts to use FU when none available
system.switch_cpus0.iq.fu_full::FloatAdd            0      0.00%     71.21% # attempts to use FU when none available
system.switch_cpus0.iq.fu_full::FloatCmp            0      0.00%     71.21% # attempts to use FU when none available
system.switch_cpus0.iq.fu_full::FloatCvt            0      0.00%     71.21% # attempts to use FU when none available
system.switch_cpus0.iq.fu_full::FloatMult            0      0.00%     71.21% # attempts to use FU when none available
system.switch_cpus0.iq.fu_full::FloatDiv            0      0.00%     71.21% # attempts to use FU when none available
system.switch_cpus0.iq.fu_full::FloatSqrt            0      0.00%     71.21% # attempts to use FU when none available
system.switch_cpus0.iq.fu_full::SimdAdd             0      0.00%     71.21% # attempts to use FU when none available
system.switch_cpus0.iq.fu_full::SimdAddAcc            0      0.00%     71.21% # attempts to use FU when none available
system.switch_cpus0.iq.fu_full::SimdAlu             0      0.00%     71.21% # attempts to use FU when none available
system.switch_cpus0.iq.fu_full::SimdCmp             0      0.00%     71.21% # attempts to use FU when none available
system.switch_cpus0.iq.fu_full::SimdCvt             0      0.00%     71.21% # attempts to use FU when none available
system.switch_cpus0.iq.fu_full::SimdMisc            0      0.00%     71.21% # attempts to use FU when none available
system.switch_cpus0.iq.fu_full::SimdMult            0      0.00%     71.21% # attempts to use FU when none available
system.switch_cpus0.iq.fu_full::SimdMultAcc            0      0.00%     71.21% # attempts to use FU when none available
system.switch_cpus0.iq.fu_full::SimdShift            0      0.00%     71.21% # attempts to use FU when none available
system.switch_cpus0.iq.fu_full::SimdShiftAcc            0      0.00%     71.21% # attempts to use FU when none available
system.switch_cpus0.iq.fu_full::SimdSqrt            0      0.00%     71.21% # attempts to use FU when none available
system.switch_cpus0.iq.fu_full::SimdFloatAdd            0      0.00%     71.21% # attempts to use FU when none available
system.switch_cpus0.iq.fu_full::SimdFloatAlu            0      0.00%     71.21% # attempts to use FU when none available
system.switch_cpus0.iq.fu_full::SimdFloatCmp            0      0.00%     71.21% # attempts to use FU when none available
system.switch_cpus0.iq.fu_full::SimdFloatCvt            0      0.00%     71.21% # attempts to use FU when none available
system.switch_cpus0.iq.fu_full::SimdFloatDiv            0      0.00%     71.21% # attempts to use FU when none available
system.switch_cpus0.iq.fu_full::SimdFloatMisc            0      0.00%     71.21% # attempts to use FU when none available
system.switch_cpus0.iq.fu_full::SimdFloatMult            0      0.00%     71.21% # attempts to use FU when none available
system.switch_cpus0.iq.fu_full::SimdFloatMultAcc            0      0.00%     71.21% # attempts to use FU when none available
system.switch_cpus0.iq.fu_full::SimdFloatSqrt            0      0.00%     71.21% # attempts to use FU when none available
system.switch_cpus0.iq.fu_full::MemRead        176899     14.41%     85.62% # attempts to use FU when none available
system.switch_cpus0.iq.fu_full::MemWrite       176557     14.38%    100.00% # attempts to use FU when none available
system.switch_cpus0.iq.fu_full::IprAccess            0      0.00%    100.00% # attempts to use FU when none available
system.switch_cpus0.iq.fu_full::InstPrefetch            0      0.00%    100.00% # attempts to use FU when none available
system.switch_cpus0.iq.FU_type_0::No_OpClass            0      0.00%      0.00% # Type of FU issued
system.switch_cpus0.iq.FU_type_0::IntAlu    124452179     83.32%     83.32% # Type of FU issued
system.switch_cpus0.iq.FU_type_0::IntMult      2126211      1.42%     84.74% # Type of FU issued
system.switch_cpus0.iq.FU_type_0::IntDiv            0      0.00%     84.74% # Type of FU issued
system.switch_cpus0.iq.FU_type_0::FloatAdd            0      0.00%     84.74% # Type of FU issued
system.switch_cpus0.iq.FU_type_0::FloatCmp            0      0.00%     84.74% # Type of FU issued
system.switch_cpus0.iq.FU_type_0::FloatCvt            0      0.00%     84.74% # Type of FU issued
system.switch_cpus0.iq.FU_type_0::FloatMult            0      0.00%     84.74% # Type of FU issued
system.switch_cpus0.iq.FU_type_0::FloatDiv            0      0.00%     84.74% # Type of FU issued
system.switch_cpus0.iq.FU_type_0::FloatSqrt            0      0.00%     84.74% # Type of FU issued
system.switch_cpus0.iq.FU_type_0::SimdAdd            0      0.00%     84.74% # Type of FU issued
system.switch_cpus0.iq.FU_type_0::SimdAddAcc            0      0.00%     84.74% # Type of FU issued
system.switch_cpus0.iq.FU_type_0::SimdAlu            0      0.00%     84.74% # Type of FU issued
system.switch_cpus0.iq.FU_type_0::SimdCmp            0      0.00%     84.74% # Type of FU issued
system.switch_cpus0.iq.FU_type_0::SimdCvt            0      0.00%     84.74% # Type of FU issued
system.switch_cpus0.iq.FU_type_0::SimdMisc            0      0.00%     84.74% # Type of FU issued
system.switch_cpus0.iq.FU_type_0::SimdMult            0      0.00%     84.74% # Type of FU issued
system.switch_cpus0.iq.FU_type_0::SimdMultAcc            0      0.00%     84.74% # Type of FU issued
system.switch_cpus0.iq.FU_type_0::SimdShift            0      0.00%     84.74% # Type of FU issued
system.switch_cpus0.iq.FU_type_0::SimdShiftAcc            0      0.00%     84.74% # Type of FU issued
system.switch_cpus0.iq.FU_type_0::SimdSqrt            0      0.00%     84.74% # Type of FU issued
system.switch_cpus0.iq.FU_type_0::SimdFloatAdd            0      0.00%     84.74% # Type of FU issued
system.switch_cpus0.iq.FU_type_0::SimdFloatAlu            0      0.00%     84.74% # Type of FU issued
system.switch_cpus0.iq.FU_type_0::SimdFloatCmp            0      0.00%     84.74% # Type of FU issued
system.switch_cpus0.iq.FU_type_0::SimdFloatCvt            0      0.00%     84.74% # Type of FU issued
system.switch_cpus0.iq.FU_type_0::SimdFloatDiv            0      0.00%     84.74% # Type of FU issued
system.switch_cpus0.iq.FU_type_0::SimdFloatMisc        16534      0.01%     84.75% # Type of FU issued
system.switch_cpus0.iq.FU_type_0::SimdFloatMult            0      0.00%     84.75% # Type of FU issued
system.switch_cpus0.iq.FU_type_0::SimdFloatMultAcc            0      0.00%     84.75% # Type of FU issued
system.switch_cpus0.iq.FU_type_0::SimdFloatSqrt            0      0.00%     84.75% # Type of FU issued
system.switch_cpus0.iq.FU_type_0::MemRead     14831346      9.93%     94.68% # Type of FU issued
system.switch_cpus0.iq.FU_type_0::MemWrite      7945003      5.32%    100.00% # Type of FU issued
system.switch_cpus0.iq.FU_type_0::IprAccess            0      0.00%    100.00% # Type of FU issued
system.switch_cpus0.iq.FU_type_0::InstPrefetch            0      0.00%    100.00% # Type of FU issued
system.switch_cpus0.iq.FU_type_0::total     149371273                       # Type of FU issued
system.switch_cpus0.iq.rate                  1.681034                       # Inst issue rate
system.switch_cpus0.iq.fu_busy_cnt            1227854                       # FU busy when requested
system.switch_cpus0.iq.fu_busy_rate          0.008220                       # FU busy rate (busy events/executed inst)
system.switch_cpus0.iq.int_inst_queue_reads    385989466                       # Number of integer instruction queue reads
system.switch_cpus0.iq.int_inst_queue_writes    252956554                       # Number of integer instruction queue writes
system.switch_cpus0.iq.int_inst_queue_wakeup_accesses    145576700                       # Number of integer instruction queue wakeup accesses
system.switch_cpus0.iq.fp_inst_queue_reads            0                       # Number of floating instruction queue reads
system.switch_cpus0.iq.fp_inst_queue_writes            0                       # Number of floating instruction queue writes
system.switch_cpus0.iq.fp_inst_queue_wakeup_accesses            0                       # Number of floating instruction queue wakeup accesses
system.switch_cpus0.iq.int_alu_accesses     150599127                       # Number of integer alu accesses
system.switch_cpus0.iq.fp_alu_accesses              0                       # Number of floating point alu accesses
system.switch_cpus0.iew.lsq.thread0.forwLoads       561453                       # Number of loads that had data forwarded from stores
system.switch_cpus0.iew.lsq.thread0.invAddrLoads            0                       # Number of loads ignored due to an invalid address
system.switch_cpus0.iew.lsq.thread0.squashedLoads      7306676                       # Number of loads squashed
system.switch_cpus0.iew.lsq.thread0.ignoredResponses         2975                       # Number of memory responses ignored because the instruction is squashed
system.switch_cpus0.iew.lsq.thread0.memOrderViolation          639                       # Number of memory ordering violations
system.switch_cpus0.iew.lsq.thread0.squashedStores      2413988                       # Number of stores squashed
system.switch_cpus0.iew.lsq.thread0.invAddrSwpfs            0                       # Number of software prefetches ignored due to an invalid address
system.switch_cpus0.iew.lsq.thread0.blockedLoads            0                       # Number of blocked loads due to partial load-store forwarding
system.switch_cpus0.iew.lsq.thread0.rescheduledLoads            0                       # Number of loads that were rescheduled
system.switch_cpus0.iew.lsq.thread0.cacheBlocked            0                       # Number of times an access to memory failed due to the cache being blocked
system.switch_cpus0.iew.iewIdleCycles               0                       # Number of cycles IEW is idle
system.switch_cpus0.iew.iewSquashCycles       9176627                       # Number of cycles IEW is squashing
system.switch_cpus0.iew.iewBlockCycles         636763                       # Number of cycles IEW is blocking
system.switch_cpus0.iew.iewUnblockCycles        81724                       # Number of cycles IEW is unblocking
system.switch_cpus0.iew.iewDispatchedInsts    188051001                       # Number of instructions dispatched to IQ
system.switch_cpus0.iew.iewDispSquashedInsts       409360                       # Number of squashed instructions skipped by dispatch
system.switch_cpus0.iew.iewDispLoadInsts     18540647                       # Number of dispatched load instructions
system.switch_cpus0.iew.iewDispStoreInsts      9439764                       # Number of dispatched store instructions
system.switch_cpus0.iew.iewDispNonSpecInsts        23065                       # Number of dispatched non-speculative instructions
system.switch_cpus0.iew.iewIQFullEvents         73378                       # Number of times the IQ has become full, causing a stall
system.switch_cpus0.iew.iewLSQFullEvents            0                       # Number of times the LSQ has become full, causing a stall
system.switch_cpus0.iew.memOrderViolationEvents          639                       # Number of memory order violations
system.switch_cpus0.iew.predictedTakenIncorrect      1267420                       # Number of branches that were predicted taken incorrectly
system.switch_cpus0.iew.predictedNotTakenIncorrect      1190180                       # Number of branches that were predicted not taken incorrectly
system.switch_cpus0.iew.branchMispredicts      2457600                       # Number of branch mispredicts detected at execute
system.switch_cpus0.iew.iewExecutedInsts    147005256                       # Number of executed instructions
system.switch_cpus0.iew.iewExecLoadInsts     13916972                       # Number of load instructions executed
system.switch_cpus0.iew.iewExecSquashedInsts      2366016                       # Number of squashed instructions skipped in execute
system.switch_cpus0.iew.exec_swp                    0                       # number of swp insts executed
system.switch_cpus0.iew.exec_nop                    0                       # number of nop insts executed
system.switch_cpus0.iew.exec_refs            21653453                       # number of memory reference insts executed
system.switch_cpus0.iew.exec_branches        20736969                       # Number of branches executed
system.switch_cpus0.iew.exec_stores           7736481                       # Number of stores executed
system.switch_cpus0.iew.exec_rate            1.654407                       # Inst execution rate
system.switch_cpus0.iew.wb_sent             145673240                       # cumulative count of insts sent to commit
system.switch_cpus0.iew.wb_count            145576700                       # cumulative count of insts written-back
system.switch_cpus0.iew.wb_producers         94869234                       # num instructions producing a value
system.switch_cpus0.iew.wb_consumers        267854705                       # num instructions consuming a value
system.switch_cpus0.iew.wb_penalized                0                       # number of instrctions required to write to 'other' IQ
system.switch_cpus0.iew.wb_rate              1.638330                       # insts written-back per cycle
system.switch_cpus0.iew.wb_fanout            0.354182                       # average fanout of values written-back
system.switch_cpus0.iew.wb_penalized_rate            0                       # fraction of instructions written-back that wrote to 'other' IQ
system.switch_cpus0.commit.commitCommittedInsts    100000002                       # The number of committed instructions
system.switch_cpus0.commit.commitCommittedOps    122809437                       # The number of committed instructions
system.switch_cpus0.commit.commitSquashedInsts     65242490                       # The number of squashed insts skipped by commit
system.switch_cpus0.commit.commitNonSpecStalls        33068                       # The number of times commit has been forced to stall to communicate backwards
system.switch_cpus0.commit.branchMispredicts      2123724                       # The number of times a branch was mispredicted
system.switch_cpus0.commit.committed_per_cycle::samples     76549377                       # Number of insts commited each cycle
system.switch_cpus0.commit.committed_per_cycle::mean     1.604317                       # Number of insts commited each cycle
system.switch_cpus0.commit.committed_per_cycle::stdev     2.133511                       # Number of insts commited each cycle
system.switch_cpus0.commit.committed_per_cycle::underflows            0      0.00%      0.00% # Number of insts commited each cycle
system.switch_cpus0.commit.committed_per_cycle::0     30309332     39.59%     39.59% # Number of insts commited each cycle
system.switch_cpus0.commit.committed_per_cycle::1     20962969     27.38%     66.98% # Number of insts commited each cycle
system.switch_cpus0.commit.committed_per_cycle::2      8533833     11.15%     78.13% # Number of insts commited each cycle
system.switch_cpus0.commit.committed_per_cycle::3      4798204      6.27%     84.40% # Number of insts commited each cycle
system.switch_cpus0.commit.committed_per_cycle::4      3917983      5.12%     89.51% # Number of insts commited each cycle
system.switch_cpus0.commit.committed_per_cycle::5      1591277      2.08%     91.59% # Number of insts commited each cycle
system.switch_cpus0.commit.committed_per_cycle::6      1890849      2.47%     94.06% # Number of insts commited each cycle
system.switch_cpus0.commit.committed_per_cycle::7       948661      1.24%     95.30% # Number of insts commited each cycle
system.switch_cpus0.commit.committed_per_cycle::8      3596269      4.70%    100.00% # Number of insts commited each cycle
system.switch_cpus0.commit.committed_per_cycle::overflows            0      0.00%    100.00% # Number of insts commited each cycle
system.switch_cpus0.commit.committed_per_cycle::min_value            0                       # Number of insts commited each cycle
system.switch_cpus0.commit.committed_per_cycle::max_value            8                       # Number of insts commited each cycle
system.switch_cpus0.commit.committed_per_cycle::total     76549377                       # Number of insts commited each cycle
system.switch_cpus0.commit.committedInsts    100000002                       # Number of instructions committed
system.switch_cpus0.commit.committedOps     122809437                       # Number of ops (including micro ops) committed
system.switch_cpus0.commit.swp_count                0                       # Number of s/w prefetches committed
system.switch_cpus0.commit.refs              18259741                       # Number of memory references committed
system.switch_cpus0.commit.loads             11233968                       # Number of loads committed
system.switch_cpus0.commit.membars              16534                       # Number of memory barriers committed
system.switch_cpus0.commit.branches          17645481                       # Number of branches committed
system.switch_cpus0.commit.fp_insts                 0                       # Number of committed floating point instructions.
system.switch_cpus0.commit.int_insts        110655598                       # Number of committed integer instructions.
system.switch_cpus0.commit.function_calls      2500197                       # Number of function calls committed.
system.switch_cpus0.commit.bw_lim_events      3596269                       # number cycles where commit BW limit reached
system.switch_cpus0.commit.bw_limited               0                       # number of insts not committed due to BW limits
system.switch_cpus0.rob.rob_reads           261005035                       # The number of ROB reads
system.switch_cpus0.rob.rob_writes          385286264                       # The number of ROB writes
system.switch_cpus0.timesIdled                  43442                       # Number of times that the entire CPU went into an idle state and unscheduled itself
system.switch_cpus0.idleCycles                3130773                       # Total number of cycles that the CPU has spent unscheduled due to idling
system.switch_cpus0.committedInsts          100000002                       # Number of Instructions Simulated
system.switch_cpus0.committedOps            122809437                       # Number of Ops (including micro ops) Simulated
system.switch_cpus0.committedInsts_total    100000002                       # Number of Instructions Simulated
system.switch_cpus0.cpi                      0.888568                       # CPI: Cycles Per Instruction
system.switch_cpus0.cpi_total                0.888568                       # CPI: Total CPI of All Threads
system.switch_cpus0.ipc                      1.125407                       # IPC: Instructions Per Cycle
system.switch_cpus0.ipc_total                1.125407                       # IPC: Total IPC of All Threads
system.switch_cpus0.int_regfile_reads       661351374                       # number of integer regfile reads
system.switch_cpus0.int_regfile_writes      201173211                       # number of integer regfile writes
system.switch_cpus0.misc_regfile_reads      190110809                       # number of misc regfile reads
system.switch_cpus0.misc_regfile_writes         33068                       # number of misc regfile writes
system.switch_cpus1.dtb.inst_hits                   0                       # ITB inst hits
system.switch_cpus1.dtb.inst_misses                 0                       # ITB inst misses
system.switch_cpus1.dtb.read_hits                   0                       # DTB read hits
system.switch_cpus1.dtb.read_misses                 0                       # DTB read misses
system.switch_cpus1.dtb.write_hits                  0                       # DTB write hits
system.switch_cpus1.dtb.write_misses                0                       # DTB write misses
system.switch_cpus1.dtb.flush_tlb                   0                       # Number of times complete TLB was flushed
system.switch_cpus1.dtb.flush_tlb_mva               0                       # Number of times TLB was flushed by MVA
system.switch_cpus1.dtb.flush_tlb_mva_asid            0                       # Number of times TLB was flushed by MVA & ASID
system.switch_cpus1.dtb.flush_tlb_asid              0                       # Number of times TLB was flushed by ASID
system.switch_cpus1.dtb.flush_entries               0                       # Number of entries that have been flushed from TLB
system.switch_cpus1.dtb.align_faults                0                       # Number of TLB faults due to alignment restrictions
system.switch_cpus1.dtb.prefetch_faults             0                       # Number of TLB faults due to prefetch
system.switch_cpus1.dtb.domain_faults               0                       # Number of TLB faults due to domain restrictions
system.switch_cpus1.dtb.perms_faults                0                       # Number of TLB faults due to permissions restrictions
system.switch_cpus1.dtb.read_accesses               0                       # DTB read accesses
system.switch_cpus1.dtb.write_accesses              0                       # DTB write accesses
system.switch_cpus1.dtb.inst_accesses               0                       # ITB inst accesses
system.switch_cpus1.dtb.hits                        0                       # DTB hits
system.switch_cpus1.dtb.misses                      0                       # DTB misses
system.switch_cpus1.dtb.accesses                    0                       # DTB accesses
system.switch_cpus1.itb.inst_hits                   0                       # ITB inst hits
system.switch_cpus1.itb.inst_misses                 0                       # ITB inst misses
system.switch_cpus1.itb.read_hits                   0                       # DTB read hits
system.switch_cpus1.itb.read_misses                 0                       # DTB read misses
system.switch_cpus1.itb.write_hits                  0                       # DTB write hits
system.switch_cpus1.itb.write_misses                0                       # DTB write misses
system.switch_cpus1.itb.flush_tlb                   0                       # Number of times complete TLB was flushed
system.switch_cpus1.itb.flush_tlb_mva               0                       # Number of times TLB was flushed by MVA
system.switch_cpus1.itb.flush_tlb_mva_asid            0                       # Number of times TLB was flushed by MVA & ASID
system.switch_cpus1.itb.flush_tlb_asid              0                       # Number of times TLB was flushed by ASID
system.switch_cpus1.itb.flush_entries               0                       # Number of entries that have been flushed from TLB
system.switch_cpus1.itb.align_faults                0                       # Number of TLB faults due to alignment restrictions
system.switch_cpus1.itb.prefetch_faults             0                       # Number of TLB faults due to prefetch
system.switch_cpus1.itb.domain_faults               0                       # Number of TLB faults due to domain restrictions
system.switch_cpus1.itb.perms_faults                0                       # Number of TLB faults due to permissions restrictions
system.switch_cpus1.itb.read_accesses               0                       # DTB read accesses
system.switch_cpus1.itb.write_accesses              0                       # DTB write accesses
system.switch_cpus1.itb.inst_accesses               0                       # ITB inst accesses
system.switch_cpus1.itb.hits                        0                       # DTB hits
system.switch_cpus1.itb.misses                      0                       # DTB misses
system.switch_cpus1.itb.accesses                    0                       # DTB accesses
system.cpu1.workload.num_syscalls                   0                       # Number of system calls
system.switch_cpus1.numCycles                88856777                       # number of cpu cycles simulated
system.switch_cpus1.numWorkItemsStarted             0                       # number of work items this cpu started
system.switch_cpus1.numWorkItemsCompleted            0                       # number of work items this cpu completed
system.switch_cpus1.BPredUnit.lookups        32730074                       # Number of BP lookups
system.switch_cpus1.BPredUnit.condPredicted     26700338                       # Number of conditional branches predicted
system.switch_cpus1.BPredUnit.condIncorrect      2182705                       # Number of conditional branches incorrect
system.switch_cpus1.BPredUnit.BTBLookups     13807764                       # Number of BTB lookups
system.switch_cpus1.BPredUnit.BTBHits        12798466                       # Number of BTB hits
system.switch_cpus1.BPredUnit.BTBCorrect            0                       # Number of correct BTB predictions (this stat may not work properly.
system.switch_cpus1.BPredUnit.usedRAS         3526177                       # Number of times the RAS was used to get a target.
system.switch_cpus1.BPredUnit.RASInCorrect        96856                       # Number of incorrect RAS predictions.
system.switch_cpus1.fetch.icacheStallCycles     32725647                       # Number of cycles fetch is stalled on an Icache miss
system.switch_cpus1.fetch.Insts             179815445                       # Number of instructions fetch has processed
system.switch_cpus1.fetch.Branches           32730074                       # Number of branches that fetch encountered
system.switch_cpus1.fetch.predictedBranches     16324643                       # Number of branches that fetch has predicted taken
system.switch_cpus1.fetch.Cycles             39936101                       # Number of cycles fetch has run and was not squashing or blocked
system.switch_cpus1.fetch.SquashCycles       11604841                       # Number of cycles fetch has spent squashing
system.switch_cpus1.fetch.BlockedCycles       5340966                       # Number of cycles fetch has spent blocked
system.switch_cpus1.fetch.CacheLines         16138322                       # Number of cache lines fetched
system.switch_cpus1.fetch.IcacheSquashes      1038373                       # Number of outstanding Icache misses that were squashed
system.switch_cpus1.fetch.rateDist::samples     87397903                       # Number of instructions fetched each cycle (Total)
system.switch_cpus1.fetch.rateDist::mean     2.548857                       # Number of instructions fetched each cycle (Total)
system.switch_cpus1.fetch.rateDist::stdev     3.295632                       # Number of instructions fetched each cycle (Total)
system.switch_cpus1.fetch.rateDist::underflows            0      0.00%      0.00% # Number of instructions fetched each cycle (Total)
system.switch_cpus1.fetch.rateDist::0        47461802     54.31%     54.31% # Number of instructions fetched each cycle (Total)
system.switch_cpus1.fetch.rateDist::1         2642639      3.02%     57.33% # Number of instructions fetched each cycle (Total)
system.switch_cpus1.fetch.rateDist::2         4942613      5.66%     62.98% # Number of instructions fetched each cycle (Total)
system.switch_cpus1.fetch.rateDist::3         4922923      5.63%     68.62% # Number of instructions fetched each cycle (Total)
system.switch_cpus1.fetch.rateDist::4         3055524      3.50%     72.11% # Number of instructions fetched each cycle (Total)
system.switch_cpus1.fetch.rateDist::5         2426147      2.78%     74.89% # Number of instructions fetched each cycle (Total)
system.switch_cpus1.fetch.rateDist::6         1520232      1.74%     76.63% # Number of instructions fetched each cycle (Total)
system.switch_cpus1.fetch.rateDist::7         1414304      1.62%     78.25% # Number of instructions fetched each cycle (Total)
system.switch_cpus1.fetch.rateDist::8        19011719     21.75%    100.00% # Number of instructions fetched each cycle (Total)
system.switch_cpus1.fetch.rateDist::overflows            0      0.00%    100.00% # Number of instructions fetched each cycle (Total)
system.switch_cpus1.fetch.rateDist::min_value            0                       # Number of instructions fetched each cycle (Total)
system.switch_cpus1.fetch.rateDist::max_value            8                       # Number of instructions fetched each cycle (Total)
system.switch_cpus1.fetch.rateDist::total     87397903                       # Number of instructions fetched each cycle (Total)
system.switch_cpus1.fetch.branchRate         0.368346                       # Number of branch fetches per cycle
system.switch_cpus1.fetch.rate               2.023655                       # Number of inst fetches per cycle
system.switch_cpus1.decode.IdleCycles        34116082                       # Number of cycles decode is idle
system.switch_cpus1.decode.BlockedCycles      5280134                       # Number of cycles decode is blocked
system.switch_cpus1.decode.RunCycles         38371538                       # Number of cycles decode is running
system.switch_cpus1.decode.UnblockCycles       235201                       # Number of cycles decode is unblocking
system.switch_cpus1.decode.SquashCycles       9394944                       # Number of cycles decode is squashing
system.switch_cpus1.decode.BranchResolved      5523114                       # Number of times decode resolved a branch
system.switch_cpus1.decode.BranchMispred          273                       # Number of times decode detected a branch misprediction
system.switch_cpus1.decode.DecodedInsts     215707114                       # Number of instructions handled by decode
system.switch_cpus1.decode.SquashedInsts         1425                       # Number of squashed instructions handled by decode
system.switch_cpus1.rename.SquashCycles       9394944                       # Number of cycles rename is squashing
system.switch_cpus1.rename.IdleCycles        36584289                       # Number of cycles rename is idle
system.switch_cpus1.rename.BlockCycles        1036309                       # Number of cycles rename is blocking
system.switch_cpus1.rename.serializeStallCycles       850316                       # count of cycles rename stalled for serializing inst
system.switch_cpus1.rename.RunCycles         36090980                       # Number of cycles rename is running
system.switch_cpus1.rename.UnblockCycles      3441061                       # Number of cycles rename is unblocking
system.switch_cpus1.rename.RenamedInsts     208040112                       # Number of instructions processed by rename
system.switch_cpus1.rename.ROBFullEvents           35                       # Number of times rename has blocked due to ROB full
system.switch_cpus1.rename.IQFullEvents       1431823                       # Number of times rename has blocked due to IQ full
system.switch_cpus1.rename.LSQFullEvents      1052619                       # Number of times rename has blocked due to LSQ full
system.switch_cpus1.rename.RenamedOperands    292131365                       # Number of destination operands rename has renamed
system.switch_cpus1.rename.RenameLookups    970607459                       # Number of register rename lookups that rename has made
system.switch_cpus1.rename.int_rename_lookups    970607459                       # Number of integer rename lookups
system.switch_cpus1.rename.CommittedMaps    180707994                       # Number of HB maps that are committed
system.switch_cpus1.rename.UndoneMaps       111423302                       # Number of HB maps that are undone due to squashing
system.switch_cpus1.rename.serializingInsts        37096                       # count of serializing insts renamed
system.switch_cpus1.rename.tempSerializingInsts        17795                       # count of temporary serializing insts renamed
system.switch_cpus1.rename.skidInsts          9574462                       # count of insts added to the skid buffer
system.switch_cpus1.memDep0.insertedLoads     19237332                       # Number of loads inserted to the mem dependence unit.
system.switch_cpus1.memDep0.insertedStores      9835234                       # Number of stores inserted to the mem dependence unit.
system.switch_cpus1.memDep0.conflictingLoads       123789                       # Number of conflicting loads.
system.switch_cpus1.memDep0.conflictingStores      3606617                       # Number of conflicting stores.
system.switch_cpus1.iq.iqInstsAdded         196097918                       # Number of instructions added to the IQ (excludes non-spec)
system.switch_cpus1.iq.iqNonSpecInstsAdded        35589                       # Number of non-speculative instructions added to the IQ
system.switch_cpus1.iq.iqInstsIssued        156210584                       # Number of instructions issued
system.switch_cpus1.iq.iqSquashedInstsIssued       307716                       # Number of squashed instructions issued
system.switch_cpus1.iq.iqSquashedInstsExamined     66261903                       # Number of squashed instructions iterated over during squash; mainly for profiling
system.switch_cpus1.iq.iqSquashedOperandsExamined    202797322                       # Number of squashed operands that are examined and possibly removed from graph
system.switch_cpus1.iq.iqSquashedNonSpecRemoved            1                       # Number of squashed non-spec instructions that were removed
system.switch_cpus1.iq.issued_per_cycle::samples     87397903                       # Number of insts issued each cycle
system.switch_cpus1.iq.issued_per_cycle::mean     1.787349                       # Number of insts issued each cycle
system.switch_cpus1.iq.issued_per_cycle::stdev     1.896460                       # Number of insts issued each cycle
system.switch_cpus1.iq.issued_per_cycle::underflows            0      0.00%      0.00% # Number of insts issued each cycle
system.switch_cpus1.iq.issued_per_cycle::0     29709625     33.99%     33.99% # Number of insts issued each cycle
system.switch_cpus1.iq.issued_per_cycle::1     19013375     21.75%     55.75% # Number of insts issued each cycle
system.switch_cpus1.iq.issued_per_cycle::2     12722037     14.56%     70.30% # Number of insts issued each cycle
system.switch_cpus1.iq.issued_per_cycle::3      8241511      9.43%     79.73% # Number of insts issued each cycle
system.switch_cpus1.iq.issued_per_cycle::4      8669957      9.92%     89.65% # Number of insts issued each cycle
system.switch_cpus1.iq.issued_per_cycle::5      4200175      4.81%     94.46% # Number of insts issued each cycle
system.switch_cpus1.iq.issued_per_cycle::6      3312963      3.79%     98.25% # Number of insts issued each cycle
system.switch_cpus1.iq.issued_per_cycle::7       755959      0.86%     99.12% # Number of insts issued each cycle
system.switch_cpus1.iq.issued_per_cycle::8       772301      0.88%    100.00% # Number of insts issued each cycle
system.switch_cpus1.iq.issued_per_cycle::overflows            0      0.00%    100.00% # Number of insts issued each cycle
system.switch_cpus1.iq.issued_per_cycle::min_value            0                       # Number of insts issued each cycle
system.switch_cpus1.iq.issued_per_cycle::max_value            8                       # Number of insts issued each cycle
system.switch_cpus1.iq.issued_per_cycle::total     87397903                       # Number of insts issued each cycle
system.switch_cpus1.iq.fu_full::No_OpClass            0      0.00%      0.00% # attempts to use FU when none available
system.switch_cpus1.iq.fu_full::IntAlu         975192     72.63%     72.63% # attempts to use FU when none available
system.switch_cpus1.iq.fu_full::IntMult             0      0.00%     72.63% # attempts to use FU when none available
system.switch_cpus1.iq.fu_full::IntDiv              0      0.00%     72.63% # attempts to use FU when none available
system.switch_cpus1.iq.fu_full::FloatAdd            0      0.00%     72.63% # attempts to use FU when none available
system.switch_cpus1.iq.fu_full::FloatCmp            0      0.00%     72.63% # attempts to use FU when none available
system.switch_cpus1.iq.fu_full::FloatCvt            0      0.00%     72.63% # attempts to use FU when none available
system.switch_cpus1.iq.fu_full::FloatMult            0      0.00%     72.63% # attempts to use FU when none available
system.switch_cpus1.iq.fu_full::FloatDiv            0      0.00%     72.63% # attempts to use FU when none available
system.switch_cpus1.iq.fu_full::FloatSqrt            0      0.00%     72.63% # attempts to use FU when none available
system.switch_cpus1.iq.fu_full::SimdAdd             0      0.00%     72.63% # attempts to use FU when none available
system.switch_cpus1.iq.fu_full::SimdAddAcc            0      0.00%     72.63% # attempts to use FU when none available
system.switch_cpus1.iq.fu_full::SimdAlu             0      0.00%     72.63% # attempts to use FU when none available
system.switch_cpus1.iq.fu_full::SimdCmp             0      0.00%     72.63% # attempts to use FU when none available
system.switch_cpus1.iq.fu_full::SimdCvt             0      0.00%     72.63% # attempts to use FU when none available
system.switch_cpus1.iq.fu_full::SimdMisc            0      0.00%     72.63% # attempts to use FU when none available
system.switch_cpus1.iq.fu_full::SimdMult            0      0.00%     72.63% # attempts to use FU when none available
system.switch_cpus1.iq.fu_full::SimdMultAcc            0      0.00%     72.63% # attempts to use FU when none available
system.switch_cpus1.iq.fu_full::SimdShift            0      0.00%     72.63% # attempts to use FU when none available
system.switch_cpus1.iq.fu_full::SimdShiftAcc            0      0.00%     72.63% # attempts to use FU when none available
system.switch_cpus1.iq.fu_full::SimdSqrt            0      0.00%     72.63% # attempts to use FU when none available
system.switch_cpus1.iq.fu_full::SimdFloatAdd            0      0.00%     72.63% # attempts to use FU when none available
system.switch_cpus1.iq.fu_full::SimdFloatAlu            0      0.00%     72.63% # attempts to use FU when none available
system.switch_cpus1.iq.fu_full::SimdFloatCmp            0      0.00%     72.63% # attempts to use FU when none available
system.switch_cpus1.iq.fu_full::SimdFloatCvt            0      0.00%     72.63% # attempts to use FU when none available
system.switch_cpus1.iq.fu_full::SimdFloatDiv            0      0.00%     72.63% # attempts to use FU when none available
system.switch_cpus1.iq.fu_full::SimdFloatMisc            0      0.00%     72.63% # attempts to use FU when none available
system.switch_cpus1.iq.fu_full::SimdFloatMult            0      0.00%     72.63% # attempts to use FU when none available
system.switch_cpus1.iq.fu_full::SimdFloatMultAcc            0      0.00%     72.63% # attempts to use FU when none available
system.switch_cpus1.iq.fu_full::SimdFloatSqrt            0      0.00%     72.63% # attempts to use FU when none available
system.switch_cpus1.iq.fu_full::MemRead        184663     13.75%     86.39% # attempts to use FU when none available
system.switch_cpus1.iq.fu_full::MemWrite       182778     13.61%    100.00% # attempts to use FU when none available
system.switch_cpus1.iq.fu_full::IprAccess            0      0.00%    100.00% # attempts to use FU when none available
system.switch_cpus1.iq.fu_full::InstPrefetch            0      0.00%    100.00% # attempts to use FU when none available
system.switch_cpus1.iq.FU_type_0::No_OpClass            0      0.00%      0.00% # Type of FU issued
system.switch_cpus1.iq.FU_type_0::IntAlu    130666274     83.65%     83.65% # Type of FU issued
system.switch_cpus1.iq.FU_type_0::IntMult      2099231      1.34%     84.99% # Type of FU issued
system.switch_cpus1.iq.FU_type_0::IntDiv            0      0.00%     84.99% # Type of FU issued
system.switch_cpus1.iq.FU_type_0::FloatAdd            0      0.00%     84.99% # Type of FU issued
system.switch_cpus1.iq.FU_type_0::FloatCmp            0      0.00%     84.99% # Type of FU issued
system.switch_cpus1.iq.FU_type_0::FloatCvt            0      0.00%     84.99% # Type of FU issued
system.switch_cpus1.iq.FU_type_0::FloatMult            0      0.00%     84.99% # Type of FU issued
system.switch_cpus1.iq.FU_type_0::FloatDiv            0      0.00%     84.99% # Type of FU issued
system.switch_cpus1.iq.FU_type_0::FloatSqrt            0      0.00%     84.99% # Type of FU issued
system.switch_cpus1.iq.FU_type_0::SimdAdd            0      0.00%     84.99% # Type of FU issued
system.switch_cpus1.iq.FU_type_0::SimdAddAcc            0      0.00%     84.99% # Type of FU issued
system.switch_cpus1.iq.FU_type_0::SimdAlu            0      0.00%     84.99% # Type of FU issued
system.switch_cpus1.iq.FU_type_0::SimdCmp            0      0.00%     84.99% # Type of FU issued
system.switch_cpus1.iq.FU_type_0::SimdCvt            0      0.00%     84.99% # Type of FU issued
system.switch_cpus1.iq.FU_type_0::SimdMisc            0      0.00%     84.99% # Type of FU issued
system.switch_cpus1.iq.FU_type_0::SimdMult            0      0.00%     84.99% # Type of FU issued
system.switch_cpus1.iq.FU_type_0::SimdMultAcc            0      0.00%     84.99% # Type of FU issued
system.switch_cpus1.iq.FU_type_0::SimdShift            0      0.00%     84.99% # Type of FU issued
system.switch_cpus1.iq.FU_type_0::SimdShiftAcc            0      0.00%     84.99% # Type of FU issued
system.switch_cpus1.iq.FU_type_0::SimdSqrt            0      0.00%     84.99% # Type of FU issued
system.switch_cpus1.iq.FU_type_0::SimdFloatAdd            0      0.00%     84.99% # Type of FU issued
system.switch_cpus1.iq.FU_type_0::SimdFloatAlu            0      0.00%     84.99% # Type of FU issued
system.switch_cpus1.iq.FU_type_0::SimdFloatCmp            0      0.00%     84.99% # Type of FU issued
system.switch_cpus1.iq.FU_type_0::SimdFloatCvt            0      0.00%     84.99% # Type of FU issued
system.switch_cpus1.iq.FU_type_0::SimdFloatDiv            0      0.00%     84.99% # Type of FU issued
system.switch_cpus1.iq.FU_type_0::SimdFloatMisc        17794      0.01%     85.00% # Type of FU issued
system.switch_cpus1.iq.FU_type_0::SimdFloatMult            0      0.00%     85.00% # Type of FU issued
system.switch_cpus1.iq.FU_type_0::SimdFloatMultAcc            0      0.00%     85.00% # Type of FU issued
system.switch_cpus1.iq.FU_type_0::SimdFloatSqrt            0      0.00%     85.00% # Type of FU issued
system.switch_cpus1.iq.FU_type_0::MemRead     15121422      9.68%     94.68% # Type of FU issued
system.switch_cpus1.iq.FU_type_0::MemWrite      8305863      5.32%    100.00% # Type of FU issued
system.switch_cpus1.iq.FU_type_0::IprAccess            0      0.00%    100.00% # Type of FU issued
system.switch_cpus1.iq.FU_type_0::InstPrefetch            0      0.00%    100.00% # Type of FU issued
system.switch_cpus1.iq.FU_type_0::total     156210584                       # Type of FU issued
system.switch_cpus1.iq.rate                  1.758004                       # Inst issue rate
system.switch_cpus1.iq.fu_busy_cnt            1342633                       # FU busy when requested
system.switch_cpus1.iq.fu_busy_rate          0.008595                       # FU busy rate (busy events/executed inst)
system.switch_cpus1.iq.int_inst_queue_reads    401469414                       # Number of integer instruction queue reads
system.switch_cpus1.iq.int_inst_queue_writes    262395759                       # Number of integer instruction queue writes
system.switch_cpus1.iq.int_inst_queue_wakeup_accesses    152642308                       # Number of integer instruction queue wakeup accesses
system.switch_cpus1.iq.fp_inst_queue_reads            0                       # Number of floating instruction queue reads
system.switch_cpus1.iq.fp_inst_queue_writes            0                       # Number of floating instruction queue writes
system.switch_cpus1.iq.fp_inst_queue_wakeup_accesses            0                       # Number of floating instruction queue wakeup accesses
system.switch_cpus1.iq.int_alu_accesses     157553217                       # Number of integer alu accesses
system.switch_cpus1.iq.fp_alu_accesses              0                       # Number of floating point alu accesses
system.switch_cpus1.iew.lsq.thread0.forwLoads       488543                       # Number of loads that had data forwarded from stores
system.switch_cpus1.iew.lsq.thread0.invAddrLoads            0                       # Number of loads ignored due to an invalid address
system.switch_cpus1.iew.lsq.thread0.squashedLoads      7456648                       # Number of loads squashed
system.switch_cpus1.iew.lsq.thread0.ignoredResponses         2089                       # Number of memory responses ignored because the instruction is squashed
system.switch_cpus1.iew.lsq.thread0.memOrderViolation          350                       # Number of memory ordering violations
system.switch_cpus1.iew.lsq.thread0.squashedStores      2372169                       # Number of stores squashed
system.switch_cpus1.iew.lsq.thread0.invAddrSwpfs            0                       # Number of software prefetches ignored due to an invalid address
system.switch_cpus1.iew.lsq.thread0.blockedLoads            0                       # Number of blocked loads due to partial load-store forwarding
system.switch_cpus1.iew.lsq.thread0.rescheduledLoads            0                       # Number of loads that were rescheduled
system.switch_cpus1.iew.lsq.thread0.cacheBlocked            0                       # Number of times an access to memory failed due to the cache being blocked
system.switch_cpus1.iew.iewIdleCycles               0                       # Number of cycles IEW is idle
system.switch_cpus1.iew.iewSquashCycles       9394944                       # Number of cycles IEW is squashing
system.switch_cpus1.iew.iewBlockCycles         528567                       # Number of cycles IEW is blocking
system.switch_cpus1.iew.iewUnblockCycles        93308                       # Number of cycles IEW is unblocking
system.switch_cpus1.iew.iewDispatchedInsts    196133507                       # Number of instructions dispatched to IQ
system.switch_cpus1.iew.iewDispSquashedInsts       459798                       # Number of squashed instructions skipped by dispatch
system.switch_cpus1.iew.iewDispLoadInsts     19237332                       # Number of dispatched load instructions
system.switch_cpus1.iew.iewDispStoreInsts      9835234                       # Number of dispatched store instructions
system.switch_cpus1.iew.iewDispNonSpecInsts        17795                       # Number of dispatched non-speculative instructions
system.switch_cpus1.iew.iewIQFullEvents         73187                       # Number of times the IQ has become full, causing a stall
system.switch_cpus1.iew.iewLSQFullEvents            0                       # Number of times the LSQ has become full, causing a stall
system.switch_cpus1.iew.memOrderViolationEvents          350                       # Number of memory order violations
system.switch_cpus1.iew.predictedTakenIncorrect      1366195                       # Number of branches that were predicted taken incorrectly
system.switch_cpus1.iew.predictedNotTakenIncorrect      1211991                       # Number of branches that were predicted not taken incorrectly
system.switch_cpus1.iew.branchMispredicts      2578186                       # Number of branch mispredicts detected at execute
system.switch_cpus1.iew.iewExecutedInsts    154155621                       # Number of executed instructions
system.switch_cpus1.iew.iewExecLoadInsts     14430991                       # Number of load instructions executed
system.switch_cpus1.iew.iewExecSquashedInsts      2054957                       # Number of squashed instructions skipped in execute
system.switch_cpus1.iew.exec_swp                    0                       # number of swp insts executed
system.switch_cpus1.iew.exec_nop                    0                       # number of nop insts executed
system.switch_cpus1.iew.exec_refs            22549637                       # number of memory reference insts executed
system.switch_cpus1.iew.exec_branches        21859376                       # Number of branches executed
system.switch_cpus1.iew.exec_stores           8118646                       # Number of stores executed
system.switch_cpus1.iew.exec_rate            1.734877                       # Inst execution rate
system.switch_cpus1.iew.wb_sent             152690213                       # cumulative count of insts sent to commit
system.switch_cpus1.iew.wb_count            152642308                       # cumulative count of insts written-back
system.switch_cpus1.iew.wb_producers         97315777                       # num instructions producing a value
system.switch_cpus1.iew.wb_consumers        279242172                       # num instructions consuming a value
system.switch_cpus1.iew.wb_penalized                0                       # number of instrctions required to write to 'other' IQ
system.switch_cpus1.iew.wb_rate              1.717847                       # insts written-back per cycle
system.switch_cpus1.iew.wb_fanout            0.348500                       # average fanout of values written-back
system.switch_cpus1.iew.wb_penalized_rate            0                       # fraction of instructions written-back that wrote to 'other' IQ
system.switch_cpus1.commit.commitCommittedInsts    105244281                       # The number of committed instructions
system.switch_cpus1.commit.commitCommittedOps    129587157                       # The number of committed instructions
system.switch_cpus1.commit.commitSquashedInsts     66546794                       # The number of squashed insts skipped by commit
system.switch_cpus1.commit.commitNonSpecStalls        35588                       # The number of times commit has been forced to stall to communicate backwards
system.switch_cpus1.commit.branchMispredicts      2209153                       # The number of times a branch was mispredicted
system.switch_cpus1.commit.committed_per_cycle::samples     78002959                       # Number of insts commited each cycle
system.switch_cpus1.commit.committed_per_cycle::mean     1.661311                       # Number of insts commited each cycle
[...]
system.cpu3.icache.ReadReq_avg_miss_latency::total 162886.647059                       # average ReadReq miss latency
system.cpu3.icache.demand_avg_miss_latency::switch_cpus3.inst 162886.647059                       # average overall miss latency
system.cpu3.icache.demand_avg_miss_latency::total 162886.647059                       # average overall miss latency
system.cpu3.icache.overall_avg_miss_latency::switch_cpus3.inst 162886.647059                       # average overall miss latency
system.cpu3.icache.overall_avg_miss_latency::total 162886.647059                       # average overall miss latency
system.cpu3.icache.blocked_cycles::no_mshrs            0                       # number of cycles access was blocked
system.cpu3.icache.blocked_cycles::no_targets            0                       # number of cycles access was blocked
system.cpu3.icache.blocked::no_mshrs                0                       # number of cycles access was blocked
system.cpu3.icache.blocked::no_targets              0                       # number of cycles access was blocked
system.cpu3.icache.avg_blocked_cycles::no_mshrs          nan                       # average number of cycles each access was blocked
system.cpu3.icache.avg_blocked_cycles::no_targets          nan                       # average number of cycles each access was blocked
system.cpu3.icache.fast_writes                      0                       # number of fast writes performed
system.cpu3.icache.cache_copies                     0                       # number of cache copies performed
system.cpu3.icache.ReadReq_mshr_hits::switch_cpus3.inst            4                       # number of ReadReq MSHR hits
system.cpu3.icache.ReadReq_mshr_hits::total            4                       # number of ReadReq MSHR hits
system.cpu3.icache.demand_mshr_hits::switch_cpus3.inst            4                       # number of demand (read+write) MSHR hits
system.cpu3.icache.demand_mshr_hits::total            4                       # number of demand (read+write) MSHR hits
system.cpu3.icache.overall_mshr_hits::switch_cpus3.inst            4                       # number of overall MSHR hits
system.cpu3.icache.overall_mshr_hits::total            4                       # number of overall MSHR hits
system.cpu3.icache.ReadReq_mshr_misses::switch_cpus3.inst           13                       # number of ReadReq MSHR misses
system.cpu3.icache.ReadReq_mshr_misses::total           13                       # number of ReadReq MSHR misses
system.cpu3.icache.demand_mshr_misses::switch_cpus3.inst           13                       # number of demand (read+write) MSHR misses
system.cpu3.icache.demand_mshr_misses::total           13                       # number of demand (read+write) MSHR misses
system.cpu3.icache.overall_mshr_misses::switch_cpus3.inst           13                       # number of overall MSHR misses
system.cpu3.icache.overall_mshr_misses::total           13                       # number of overall MSHR misses
system.cpu3.icache.ReadReq_mshr_miss_latency::switch_cpus3.inst      2190943                       # number of ReadReq MSHR miss cycles
system.cpu3.icache.ReadReq_mshr_miss_latency::total      2190943                       # number of ReadReq MSHR miss cycles
system.cpu3.icache.demand_mshr_miss_latency::switch_cpus3.inst      2190943                       # number of demand (read+write) MSHR miss cycles
system.cpu3.icache.demand_mshr_miss_latency::total      2190943                       # number of demand (read+write) MSHR miss cycles
system.cpu3.icache.overall_mshr_miss_latency::switch_cpus3.inst      2190943                       # number of overall MSHR miss cycles
system.cpu3.icache.overall_mshr_miss_latency::total      2190943                       # number of overall MSHR miss cycles
system.cpu3.icache.ReadReq_mshr_miss_rate::switch_cpus3.inst     0.000001                       # mshr miss rate for ReadReq accesses
system.cpu3.icache.ReadReq_mshr_miss_rate::total     0.000001                       # mshr miss rate for ReadReq accesses
system.cpu3.icache.demand_mshr_miss_rate::switch_cpus3.inst     0.000001                       # mshr miss rate for demand accesses
system.cpu3.icache.demand_mshr_miss_rate::total     0.000001                       # mshr miss rate for demand accesses
system.cpu3.icache.overall_mshr_miss_rate::switch_cpus3.inst     0.000001                       # mshr miss rate for overall accesses
system.cpu3.icache.overall_mshr_miss_rate::total     0.000001                       # mshr miss rate for overall accesses
system.cpu3.icache.ReadReq_avg_mshr_miss_latency::switch_cpus3.inst 168534.076923                       # average ReadReq mshr miss latency
system.cpu3.icache.ReadReq_avg_mshr_miss_latency::total 168534.076923                       # average ReadReq mshr miss latency
system.cpu3.icache.demand_avg_mshr_miss_latency::switch_cpus3.inst 168534.076923                       # average overall mshr miss latency
system.cpu3.icache.demand_avg_mshr_miss_latency::total 168534.076923                       # average overall mshr miss latency
system.cpu3.icache.overall_avg_mshr_miss_latency::switch_cpus3.inst 168534.076923                       # average overall mshr miss latency
system.cpu3.icache.overall_avg_mshr_miss_latency::total 168534.076923                       # average overall mshr miss latency
system.cpu3.icache.no_allocate_misses               0                       # Number of misses that were no-allocate
system.cpu3.dcache.replacements                 53996                       # number of replacements
system.cpu3.dcache.tagsinuse                      256                       # Cycle average of tags in use
system.cpu3.dcache.total_refs               173923520                       # Total number of references to valid blocks.
system.cpu3.dcache.sampled_refs                 54252                       # Sample count of references to valid blocks.
system.cpu3.dcache.avg_refs               3205.845314                       # Average number of references to valid blocks.
system.cpu3.dcache.warmup_cycle                     0                       # Cycle when the warmup percentage was hit.
system.cpu3.dcache.occ_blocks::switch_cpus3.data   233.215998                       # Average occupied blocks per requestor
system.cpu3.dcache.occ_blocks::cpu3.data    22.784002                       # Average occupied blocks per requestor
system.cpu3.dcache.occ_percent::switch_cpus3.data     0.911000                       # Average percentage of cache occupancy
system.cpu3.dcache.occ_percent::cpu3.data     0.089000                       # Average percentage of cache occupancy
system.cpu3.dcache.occ_percent::total               1                       # Average percentage of cache occupancy
system.cpu3.dcache.ReadReq_hits::switch_cpus3.data     10779465                       # number of ReadReq hits
system.cpu3.dcache.ReadReq_hits::total       10779465                       # number of ReadReq hits
system.cpu3.dcache.WriteReq_hits::switch_cpus3.data      7422051                       # number of WriteReq hits
system.cpu3.dcache.WriteReq_hits::total       7422051                       # number of WriteReq hits
system.cpu3.dcache.LoadLockedReq_hits::switch_cpus3.data        18180                       # number of LoadLockedReq hits
system.cpu3.dcache.LoadLockedReq_hits::total        18180                       # number of LoadLockedReq hits
system.cpu3.dcache.StoreCondReq_hits::switch_cpus3.data        17222                       # number of StoreCondReq hits
system.cpu3.dcache.StoreCondReq_hits::total        17222                       # number of StoreCondReq hits
system.cpu3.dcache.demand_hits::switch_cpus3.data     18201516                       # number of demand (read+write) hits
system.cpu3.dcache.demand_hits::total        18201516                       # number of demand (read+write) hits
system.cpu3.dcache.overall_hits::switch_cpus3.data     18201516                       # number of overall hits
system.cpu3.dcache.overall_hits::total       18201516                       # number of overall hits
system.cpu3.dcache.ReadReq_misses::switch_cpus3.data       136495                       # number of ReadReq misses
system.cpu3.dcache.ReadReq_misses::total       136495                       # number of ReadReq misses
system.cpu3.dcache.WriteReq_misses::switch_cpus3.data         4287                       # number of WriteReq misses
system.cpu3.dcache.WriteReq_misses::total         4287                       # number of WriteReq misses
system.cpu3.dcache.demand_misses::switch_cpus3.data       140782                       # number of demand (read+write) misses
system.cpu3.dcache.demand_misses::total        140782                       # number of demand (read+write) misses
system.cpu3.dcache.overall_misses::switch_cpus3.data       140782                       # number of overall misses
system.cpu3.dcache.overall_misses::total       140782                       # number of overall misses
system.cpu3.dcache.ReadReq_miss_latency::switch_cpus3.data   6045789827                       # number of ReadReq miss cycles
system.cpu3.dcache.ReadReq_miss_latency::total   6045789827                       # number of ReadReq miss cycles
system.cpu3.dcache.WriteReq_miss_latency::switch_cpus3.data    621764216                       # number of WriteReq miss cycles
system.cpu3.dcache.WriteReq_miss_latency::total    621764216                       # number of WriteReq miss cycles
system.cpu3.dcache.demand_miss_latency::switch_cpus3.data   6667554043                       # number of demand (read+write) miss cycles
system.cpu3.dcache.demand_miss_latency::total   6667554043                       # number of demand (read+write) miss cycles
system.cpu3.dcache.overall_miss_latency::switch_cpus3.data   6667554043                       # number of overall miss cycles
system.cpu3.dcache.overall_miss_latency::total   6667554043                       # number of overall miss cycles
system.cpu3.dcache.ReadReq_accesses::switch_cpus3.data     10915960                       # number of ReadReq accesses(hits+misses)
system.cpu3.dcache.ReadReq_accesses::total     10915960                       # number of ReadReq accesses(hits+misses)
system.cpu3.dcache.WriteReq_accesses::switch_cpus3.data      7426338                       # number of WriteReq accesses(hits+misses)
system.cpu3.dcache.WriteReq_accesses::total      7426338                       # number of WriteReq accesses(hits+misses)
system.cpu3.dcache.LoadLockedReq_accesses::switch_cpus3.data        18180                       # number of LoadLockedReq accesses(hits+misses)
system.cpu3.dcache.LoadLockedReq_accesses::total        18180                       # number of LoadLockedReq accesses(hits+misses)
system.cpu3.dcache.StoreCondReq_accesses::switch_cpus3.data        17222                       # number of StoreCondReq accesses(hits+misses)
system.cpu3.dcache.StoreCondReq_accesses::total        17222                       # number of StoreCondReq accesses(hits+misses)
system.cpu3.dcache.demand_accesses::switch_cpus3.data     18342298                       # number of demand (read+write) accesses
system.cpu3.dcache.demand_accesses::total     18342298                       # number of demand (read+write) accesses
system.cpu3.dcache.overall_accesses::switch_cpus3.data     18342298                       # number of overall (read+write) accesses
system.cpu3.dcache.overall_accesses::total     18342298                       # number of overall (read+write) accesses
system.cpu3.dcache.ReadReq_miss_rate::switch_cpus3.data     0.012504                       # miss rate for ReadReq accesses
system.cpu3.dcache.ReadReq_miss_rate::total     0.012504                       # miss rate for ReadReq accesses
system.cpu3.dcache.WriteReq_miss_rate::switch_cpus3.data     0.000577                       # miss rate for WriteReq accesses
system.cpu3.dcache.WriteReq_miss_rate::total     0.000577                       # miss rate for WriteReq accesses
system.cpu3.dcache.demand_miss_rate::switch_cpus3.data     0.007675                       # miss rate for demand accesses
system.cpu3.dcache.demand_miss_rate::total     0.007675                       # miss rate for demand accesses
system.cpu3.dcache.overall_miss_rate::switch_cpus3.data     0.007675                       # miss rate for overall accesses
system.cpu3.dcache.overall_miss_rate::total     0.007675                       # miss rate for overall accesses
system.cpu3.dcache.ReadReq_avg_miss_latency::switch_cpus3.data 44293.123023                       # average ReadReq miss latency
system.cpu3.dcache.ReadReq_avg_miss_latency::total 44293.123023                       # average ReadReq miss latency
system.cpu3.dcache.WriteReq_avg_miss_latency::switch_cpus3.data 145034.806625                       # average WriteReq miss latency
system.cpu3.dcache.WriteReq_avg_miss_latency::total 145034.806625                       # average WriteReq miss latency
system.cpu3.dcache.demand_avg_miss_latency::switch_cpus3.data 47360.841890                       # average overall miss latency
system.cpu3.dcache.demand_avg_miss_latency::total 47360.841890                       # average overall miss latency
system.cpu3.dcache.overall_avg_miss_latency::switch_cpus3.data 47360.841890                       # average overall miss latency
system.cpu3.dcache.overall_avg_miss_latency::total 47360.841890                       # average overall miss latency
system.cpu3.dcache.blocked_cycles::no_mshrs            0                       # number of cycles access was blocked
system.cpu3.dcache.blocked_cycles::no_targets      2271703                       # number of cycles access was blocked
system.cpu3.dcache.blocked::no_mshrs                0                       # number of cycles access was blocked
system.cpu3.dcache.blocked::no_targets             22                       # number of cycles access was blocked
system.cpu3.dcache.avg_blocked_cycles::no_mshrs          nan                       # average number of cycles each access was blocked
system.cpu3.dcache.avg_blocked_cycles::no_targets 103259.227273                       # average number of cycles each access was blocked
system.cpu3.dcache.fast_writes                      0                       # number of fast writes performed
system.cpu3.dcache.cache_copies                     0                       # number of cache copies performed
system.cpu3.dcache.writebacks::writebacks        27317                       # number of writebacks
system.cpu3.dcache.writebacks::total            27317                       # number of writebacks
system.cpu3.dcache.ReadReq_mshr_hits::switch_cpus3.data        82504                       # number of ReadReq MSHR hits
system.cpu3.dcache.ReadReq_mshr_hits::total        82504                       # number of ReadReq MSHR hits
system.cpu3.dcache.WriteReq_mshr_hits::switch_cpus3.data         4282                       # number of WriteReq MSHR hits
system.cpu3.dcache.WriteReq_mshr_hits::total         4282                       # number of WriteReq MSHR hits
system.cpu3.dcache.demand_mshr_hits::switch_cpus3.data        86786                       # number of demand (read+write) MSHR hits
system.cpu3.dcache.demand_mshr_hits::total        86786                       # number of demand (read+write) MSHR hits
system.cpu3.dcache.overall_mshr_hits::switch_cpus3.data        86786                       # number of overall MSHR hits
system.cpu3.dcache.overall_mshr_hits::total        86786                       # number of overall MSHR hits
system.cpu3.dcache.ReadReq_mshr_misses::switch_cpus3.data        53991                       # number of ReadReq MSHR misses
system.cpu3.dcache.ReadReq_mshr_misses::total        53991                       # number of ReadReq MSHR misses
system.cpu3.dcache.WriteReq_mshr_misses::switch_cpus3.data            5                       # number of WriteReq MSHR misses
system.cpu3.dcache.WriteReq_mshr_misses::total            5                       # number of WriteReq MSHR misses
system.cpu3.dcache.demand_mshr_misses::switch_cpus3.data        53996                       # number of demand (read+write) MSHR misses
system.cpu3.dcache.demand_mshr_misses::total        53996                       # number of demand (read+write) MSHR misses
system.cpu3.dcache.overall_mshr_misses::switch_cpus3.data        53996                       # number of overall MSHR misses
system.cpu3.dcache.overall_mshr_misses::total        53996                       # number of overall MSHR misses
system.cpu3.dcache.ReadReq_mshr_miss_latency::switch_cpus3.data   1397165610                       # number of ReadReq MSHR miss cycles
system.cpu3.dcache.ReadReq_mshr_miss_latency::total   1397165610                       # number of ReadReq MSHR miss cycles
system.cpu3.dcache.WriteReq_mshr_miss_latency::switch_cpus3.data       538920                       # number of WriteReq MSHR miss cycles
system.cpu3.dcache.WriteReq_mshr_miss_latency::total       538920                       # number of WriteReq MSHR miss cycles
system.cpu3.dcache.demand_mshr_miss_latency::switch_cpus3.data   1397704530                       # number of demand (read+write) MSHR miss cycles
system.cpu3.dcache.demand_mshr_miss_latency::total   1397704530                       # number of demand (read+write) MSHR miss cycles
system.cpu3.dcache.overall_mshr_miss_latency::switch_cpus3.data   1397704530                       # number of overall MSHR miss cycles
system.cpu3.dcache.overall_mshr_miss_latency::total   1397704530                       # number of overall MSHR miss cycles
system.cpu3.dcache.ReadReq_mshr_miss_rate::switch_cpus3.data     0.004946                       # mshr miss rate for ReadReq accesses
system.cpu3.dcache.ReadReq_mshr_miss_rate::total     0.004946                       # mshr miss rate for ReadReq accesses
system.cpu3.dcache.WriteReq_mshr_miss_rate::switch_cpus3.data     0.000001                       # mshr miss rate for WriteReq accesses
system.cpu3.dcache.WriteReq_mshr_miss_rate::total     0.000001                       # mshr miss rate for WriteReq accesses
system.cpu3.dcache.demand_mshr_miss_rate::switch_cpus3.data     0.002944                       # mshr miss rate for demand accesses
system.cpu3.dcache.demand_mshr_miss_rate::total     0.002944                       # mshr miss rate for demand accesses
system.cpu3.dcache.overall_mshr_miss_rate::switch_cpus3.data     0.002944                       # mshr miss rate for overall accesses
system.cpu3.dcache.overall_mshr_miss_rate::total     0.002944                       # mshr miss rate for overall accesses
system.cpu3.dcache.ReadReq_avg_mshr_miss_latency::switch_cpus3.data 25877.750181                       # average ReadReq mshr miss latency
system.cpu3.dcache.ReadReq_avg_mshr_miss_latency::total 25877.750181                       # average ReadReq mshr miss latency
system.cpu3.dcache.WriteReq_avg_mshr_miss_latency::switch_cpus3.data       107784                       # average WriteReq mshr miss latency
system.cpu3.dcache.WriteReq_avg_mshr_miss_latency::total       107784                       # average WriteReq mshr miss latency
system.cpu3.dcache.demand_avg_mshr_miss_latency::switch_cpus3.data 25885.334654                       # average overall mshr miss latency
system.cpu3.dcache.demand_avg_mshr_miss_latency::total 25885.334654                       # average overall mshr miss latency
system.cpu3.dcache.overall_avg_mshr_miss_latency::switch_cpus3.data 25885.334654                       # average overall mshr miss latency
system.cpu3.dcache.overall_avg_mshr_miss_latency::total 25885.334654                       # average overall mshr miss latency
system.cpu3.dcache.no_allocate_misses               0                       # Number of misses that were no-allocate

---------- End Simulation Statistics   ----------
