
---------- Begin Simulation Statistics ----------
sim_seconds                                  0.011003                       # Number of seconds simulated
sim_ticks                                 11002964502                       # Number of ticks simulated
final_tick                               538105027410                       # Number of ticks from beginning of simulation (restored from checkpoints and never reset)
sim_freq                                 1000000000000                       # Frequency of simulated ticks
host_inst_rate                                 192516                       # Simulator instruction rate (inst/s)
host_op_rate                                   249713                       # Simulator op (including micro ops) rate (op/s)
host_tick_rate                                 269215                       # Simulator tick rate (ticks/s)
host_mem_usage                               67384992                       # Number of bytes of host memory used
host_seconds                                 40870.53                       # Real time elapsed on the host
sim_insts                                  7868229388                       # Number of instructions simulated
sim_ops                                   10205920082                       # Number of ops (including micro ops) simulated
system.physmem.bytes_read::switch_cpus0.inst         4480                       # Number of bytes read from this memory
system.physmem.bytes_read::switch_cpus0.data       179072                       # Number of bytes read from this memory
system.physmem.bytes_read::switch_cpus1.inst         4736                       # Number of bytes read from this memory
system.physmem.bytes_read::switch_cpus1.data       355840                       # Number of bytes read from this memory
system.physmem.bytes_read::switch_cpus2.inst         3200                       # Number of bytes read from this memory
system.physmem.bytes_read::switch_cpus2.data       196480                       # Number of bytes read from this memory
system.physmem.bytes_read::switch_cpus3.inst         3584                       # Number of bytes read from this memory
system.physmem.bytes_read::switch_cpus3.data       196224                       # Number of bytes read from this memory
system.physmem.bytes_read::switch_cpus4.inst         4608                       # Number of bytes read from this memory
system.physmem.bytes_read::switch_cpus4.data       184576                       # Number of bytes read from this memory
system.physmem.bytes_read::switch_cpus5.inst         4224                       # Number of bytes read from this memory
system.physmem.bytes_read::switch_cpus5.data        88448                       # Number of bytes read from this memory
system.physmem.bytes_read::switch_cpus6.inst         3456                       # Number of bytes read from this memory
system.physmem.bytes_read::switch_cpus6.data       196736                       # Number of bytes read from this memory
system.physmem.bytes_read::switch_cpus7.inst         4224                       # Number of bytes read from this memory
system.physmem.bytes_read::switch_cpus7.data        88448                       # Number of bytes read from this memory
system.physmem.bytes_read::total              1518336                       # Number of bytes read from this memory
system.physmem.bytes_inst_read::switch_cpus0.inst         4480                       # Number of instructions bytes read from this memory
system.physmem.bytes_inst_read::switch_cpus1.inst         4736                       # Number of instructions bytes read from this memory
system.physmem.bytes_inst_read::switch_cpus2.inst         3200                       # Number of instructions bytes read from this memory
system.physmem.bytes_inst_read::switch_cpus3.inst         3584                       # Number of instructions bytes read from this memory
system.physmem.bytes_inst_read::switch_cpus4.inst         4608                       # Number of instructions bytes read from this memory
system.physmem.bytes_inst_read::switch_cpus5.inst         4224                       # Number of instructions bytes read from this memory
system.physmem.bytes_inst_read::switch_cpus6.inst         3456                       # Number of instructions bytes read from this memory
system.physmem.bytes_inst_read::switch_cpus7.inst         4224                       # Number of instructions bytes read from this memory
system.physmem.bytes_inst_read::total           32512                       # Number of instructions bytes read from this memory
system.physmem.bytes_written::writebacks       522880                       # Number of bytes written to this memory
system.physmem.bytes_written::total            522880                       # Number of bytes written to this memory
system.physmem.num_reads::switch_cpus0.inst           35                       # Number of read requests responded to by this memory
system.physmem.num_reads::switch_cpus0.data         1399                       # Number of read requests responded to by this memory
system.physmem.num_reads::switch_cpus1.inst           37                       # Number of read requests responded to by this memory
system.physmem.num_reads::switch_cpus1.data         2780                       # Number of read requests responded to by this memory
system.physmem.num_reads::switch_cpus2.inst           25                       # Number of read requests responded to by this memory
system.physmem.num_reads::switch_cpus2.data         1535                       # Number of read requests responded to by this memory
system.physmem.num_reads::switch_cpus3.inst           28                       # Number of read requests responded to by this memory
system.physmem.num_reads::switch_cpus3.data         1533                       # Number of read requests responded to by this memory
system.physmem.num_reads::switch_cpus4.inst           36                       # Number of read requests responded to by this memory
system.physmem.num_reads::switch_cpus4.data         1442                       # Number of read requests responded to by this memory
system.physmem.num_reads::switch_cpus5.inst           33                       # Number of read requests responded to by this memory
system.physmem.num_reads::switch_cpus5.data          691                       # Number of read requests responded to by this memory
system.physmem.num_reads::switch_cpus6.inst           27                       # Number of read requests responded to by this memory
system.physmem.num_reads::switch_cpus6.data         1537                       # Number of read requests responded to by this memory
system.physmem.num_reads::switch_cpus7.inst           33                       # Number of read requests responded to by this memory
system.physmem.num_reads::switch_cpus7.data          691                       # Number of read requests responded to by this memory
system.physmem.num_reads::total                 11862                       # Number of read requests responded to by this memory
system.physmem.num_writes::writebacks            4085                       # Number of write requests responded to by this memory
system.physmem.num_writes::functional               0                       # Number of write requests responded to by this memory
system.physmem.num_writes::interrupt                0                       # Number of write requests responded to by this memory
system.physmem.num_writes::switch_cpus0.dtb.walker            0                       # Number of write requests responded to by this memory
system.physmem.num_writes::switch_cpus0.itb.walker            0                       # Number of write requests responded to by this memory
system.physmem.num_writes::switch_cpus0.inst            0                       # Number of write requests responded to by this memory
system.physmem.num_writes::switch_cpus0.data            0                       # Number of write requests responded to by this memory
system.physmem.num_writes::switch_cpus1.dtb.walker            0                       # Number of write requests responded to by this memory
system.physmem.num_writes::switch_cpus1.itb.walker            0                       # Number of write requests responded to by this memory
system.physmem.num_writes::switch_cpus1.inst            0                       # Number of write requests responded to by this memory
system.physmem.num_writes::switch_cpus1.data            0                       # Number of write requests responded to by this memory
system.physmem.num_writes::switch_cpus2.dtb.walker            0                       # Number of write requests responded to by this memory
system.physmem.num_writes::switch_cpus2.itb.walker            0                       # Number of write requests responded to by this memory
system.physmem.num_writes::switch_cpus2.inst            0                       # Number of write requests responded to by this memory
system.physmem.num_writes::switch_cpus2.data            0                       # Number of write requests responded to by this memory
system.physmem.num_writes::switch_cpus3.dtb.walker            0                       # Number of write requests responded to by this memory
system.physmem.num_writes::switch_cpus3.itb.walker            0                       # Number of write requests responded to by this memory
system.physmem.num_writes::switch_cpus3.inst            0                       # Number of write requests responded to by this memory
system.physmem.num_writes::switch_cpus3.data            0                       # Number of write requests responded to by this memory
system.physmem.num_writes::switch_cpus4.dtb.walker            0                       # Number of write requests responded to by this memory
system.physmem.num_writes::switch_cpus4.itb.walker            0                       # Number of write requests responded to by this memory
system.physmem.num_writes::switch_cpus4.inst            0                       # Number of write requests responded to by this memory
system.physmem.num_writes::switch_cpus4.data            0                       # Number of write requests responded to by this memory
system.physmem.num_writes::switch_cpus5.dtb.walker            0                       # Number of write requests responded to by this memory
system.physmem.num_writes::switch_cpus5.itb.walker            0                       # Number of write requests responded to by this memory
system.physmem.num_writes::switch_cpus5.inst            0                       # Number of write requests responded to by this memory
system.physmem.num_writes::switch_cpus5.data            0                       # Number of write requests responded to by this memory
system.physmem.num_writes::switch_cpus6.dtb.walker            0                       # Number of write requests responded to by this memory
system.physmem.num_writes::switch_cpus6.itb.walker            0                       # Number of write requests responded to by this memory
system.physmem.num_writes::switch_cpus6.inst            0                       # Number of write requests responded to by this memory
system.physmem.num_writes::switch_cpus6.data            0                       # Number of write requests responded to by this memory
system.physmem.num_writes::switch_cpus7.dtb.walker            0                       # Number of write requests responded to by this memory
system.physmem.num_writes::switch_cpus7.itb.walker            0                       # Number of write requests responded to by this memory
system.physmem.num_writes::switch_cpus7.inst            0                       # Number of write requests responded to by this memory
system.physmem.num_writes::switch_cpus7.data            0                       # Number of write requests responded to by this memory
system.physmem.num_writes::cpu0.dtb.walker            0                       # Number of write requests responded to by this memory
system.physmem.num_writes::cpu0.itb.walker            0                       # Number of write requests responded to by this memory
system.physmem.num_writes::cpu0.inst                0                       # Number of write requests responded to by this memory
system.physmem.num_writes::cpu0.data                0                       # Number of write requests responded to by this memory
system.physmem.num_writes::cpu1.dtb.walker            0                       # Number of write requests responded to by this memory
system.physmem.num_writes::cpu1.itb.walker            0                       # Number of write requests responded to by this memory
system.physmem.num_writes::cpu1.inst                0                       # Number of write requests responded to by this memory
system.physmem.num_writes::cpu1.data                0                       # Number of write requests responded to by this memory
system.physmem.num_writes::cpu2.dtb.walker            0                       # Number of write requests responded to by this memory
system.physmem.num_writes::cpu2.itb.walker            0                       # Number of write requests responded to by this memory
system.physmem.num_writes::cpu2.inst                0                       # Number of write requests responded to by this memory
system.physmem.num_writes::cpu2.data                0                       # Number of write requests responded to by this memory
system.physmem.num_writes::cpu3.dtb.walker            0                       # Number of write requests responded to by this memory
system.physmem.num_writes::cpu3.itb.walker            0                       # Number of write requests responded to by this memory
system.physmem.num_writes::cpu3.inst                0                       # Number of write requests responded to by this memory
system.physmem.num_writes::cpu3.data                0                       # Number of write requests responded to by this memory
system.physmem.num_writes::cpu4.dtb.walker            0                       # Number of write requests responded to by this memory
system.physmem.num_writes::cpu4.itb.walker            0                       # Number of write requests responded to by this memory
system.physmem.num_writes::cpu4.inst                0                       # Number of write requests responded to by this memory
system.physmem.num_writes::cpu4.data                0                       # Number of write requests responded to by this memory
system.physmem.num_writes::cpu5.dtb.walker            0                       # Number of write requests responded to by this memory
system.physmem.num_writes::cpu5.itb.walker            0                       # Number of write requests responded to by this memory
system.physmem.num_writes::cpu5.inst                0                       # Number of write requests responded to by this memory
system.physmem.num_writes::cpu5.data                0                       # Number of write requests responded to by this memory
system.physmem.num_writes::cpu6.dtb.walker            0                       # Number of write requests responded to by this memory
system.physmem.num_writes::cpu6.itb.walker            0                       # Number of write requests responded to by this memory
system.physmem.num_writes::cpu6.inst                0                       # Number of write requests responded to by this memory
system.physmem.num_writes::cpu6.data                0                       # Number of write requests responded to by this memory
system.physmem.num_writes::cpu7.dtb.walker            0                       # Number of write requests responded to by this memory
system.physmem.num_writes::cpu7.itb.walker            0                       # Number of write requests responded to by this memory
system.physmem.num_writes::cpu7.inst                0                       # Number of write requests responded to by this memory
system.physmem.num_writes::cpu7.data                0                       # Number of write requests responded to by this memory
system.physmem.num_writes::total                 4085                       # Number of write requests responded to by this memory
system.physmem.bw_read::switch_cpus0.inst       407163                       # Total read bandwidth from this memory (bytes/s)
system.physmem.bw_read::switch_cpus0.data     16274887                       # Total read bandwidth from this memory (bytes/s)
system.physmem.bw_read::switch_cpus1.inst       430429                       # Total read bandwidth from this memory (bytes/s)
system.physmem.bw_read::switch_cpus1.data     32340375                       # Total read bandwidth from this memory (bytes/s)
system.physmem.bw_read::switch_cpus2.inst       290831                       # Total read bandwidth from this memory (bytes/s)
system.physmem.bw_read::switch_cpus2.data     17857006                       # Total read bandwidth from this memory (bytes/s)
system.physmem.bw_read::switch_cpus3.inst       325730                       # Total read bandwidth from this memory (bytes/s)
system.physmem.bw_read::switch_cpus3.data     17833739                       # Total read bandwidth from this memory (bytes/s)
system.physmem.bw_read::switch_cpus4.inst       418796                       # Total read bandwidth from this memory (bytes/s)
system.physmem.bw_read::switch_cpus4.data     16775115                       # Total read bandwidth from this memory (bytes/s)
system.physmem.bw_read::switch_cpus5.inst       383897                       # Total read bandwidth from this memory (bytes/s)
system.physmem.bw_read::switch_cpus5.data      8038561                       # Total read bandwidth from this memory (bytes/s)
system.physmem.bw_read::switch_cpus6.inst       314097                       # Total read bandwidth from this memory (bytes/s)
system.physmem.bw_read::switch_cpus6.data     17880272                       # Total read bandwidth from this memory (bytes/s)
system.physmem.bw_read::switch_cpus7.inst       383897                       # Total read bandwidth from this memory (bytes/s)
system.physmem.bw_read::switch_cpus7.data      8038561                       # Total read bandwidth from this memory (bytes/s)
system.physmem.bw_read::total               137993356                       # Total read bandwidth from this memory (bytes/s)
system.physmem.bw_inst_read::switch_cpus0.inst       407163                       # Instruction read bandwidth from this memory (bytes/s)
system.physmem.bw_inst_read::switch_cpus1.inst       430429                       # Instruction read bandwidth from this memory (bytes/s)
system.physmem.bw_inst_read::switch_cpus2.inst       290831                       # Instruction read bandwidth from this memory (bytes/s)
system.physmem.bw_inst_read::switch_cpus3.inst       325730                       # Instruction read bandwidth from this memory (bytes/s)
system.physmem.bw_inst_read::switch_cpus4.inst       418796                       # Instruction read bandwidth from this memory (bytes/s)
system.physmem.bw_inst_read::switch_cpus5.inst       383897                       # Instruction read bandwidth from this memory (bytes/s)
system.physmem.bw_inst_read::switch_cpus6.inst       314097                       # Instruction read bandwidth from this memory (bytes/s)
system.physmem.bw_inst_read::switch_cpus7.inst       383897                       # Instruction read bandwidth from this memory (bytes/s)
system.physmem.bw_inst_read::total            2954840                       # Instruction read bandwidth from this memory (bytes/s)
system.physmem.bw_write::writebacks          47521738                       # Write bandwidth from this memory (bytes/s)
system.physmem.bw_write::total               47521738                       # Write bandwidth from this memory (bytes/s)
system.physmem.bw_total::writebacks          47521738                       # Total bandwidth to/from this memory (bytes/s)
system.physmem.bw_total::switch_cpus0.inst       407163                       # Total bandwidth to/from this memory (bytes/s)
system.physmem.bw_total::switch_cpus0.data     16274887                       # Total bandwidth to/from this memory (bytes/s)
system.physmem.bw_total::switch_cpus1.inst       430429                       # Total bandwidth to/from this memory (bytes/s)
system.physmem.bw_total::switch_cpus1.data     32340375                       # Total bandwidth to/from this memory (bytes/s)
system.physmem.bw_total::switch_cpus2.inst       290831                       # Total bandwidth to/from this memory (bytes/s)
system.physmem.bw_total::switch_cpus2.data     17857006                       # Total bandwidth to/from this memory (bytes/s)
system.physmem.bw_total::switch_cpus3.inst       325730                       # Total bandwidth to/from this memory (bytes/s)
system.physmem.bw_total::switch_cpus3.data     17833739                       # Total bandwidth to/from this memory (bytes/s)
system.physmem.bw_total::switch_cpus4.inst       418796                       # Total bandwidth to/from this memory (bytes/s)
system.physmem.bw_total::switch_cpus4.data     16775115                       # Total bandwidth to/from this memory (bytes/s)
system.physmem.bw_total::switch_cpus5.inst       383897                       # Total bandwidth to/from this memory (bytes/s)
system.physmem.bw_total::switch_cpus5.data      8038561                       # Total bandwidth to/from this memory (bytes/s)
system.physmem.bw_total::switch_cpus6.inst       314097                       # Total bandwidth to/from this memory (bytes/s)
system.physmem.bw_total::switch_cpus6.data     17880272                       # Total bandwidth to/from this memory (bytes/s)
system.physmem.bw_total::switch_cpus7.inst       383897                       # Total bandwidth to/from this memory (bytes/s)
system.physmem.bw_total::switch_cpus7.data      8038561                       # Total bandwidth to/from this memory (bytes/s)
system.physmem.bw_total::total              185515095                       # Total bandwidth to/from this memory (bytes/s)
system.switch_cpus0.dtb.inst_hits                   0                       # ITB inst hits
system.switch_cpus0.dtb.inst_misses                 0                       # ITB inst misses
system.switch_cpus0.dtb.read_hits                   0                       # DTB read hits
system.switch_cpus0.dtb.read_misses                 0                       # DTB read misses
system.switch_cpus0.dtb.write_hits                  0                       # DTB write hits
system.switch_cpus0.dtb.write_misses                0                       # DTB write misses
system.switch_cpus0.dtb.flush_tlb                   0                       # Number of times complete TLB was flushed
system.switch_cpus0.dtb.flush_tlb_mva               0                       # Number of times TLB was flushed by MVA
system.switch_cpus0.dtb.flush_tlb_mva_asid            0                       # Number of times TLB was flushed by MVA & ASID
system.switch_cpus0.dtb.flush_tlb_asid              0                       # Number of times TLB was flushed by ASID
system.switch_cpus0.dtb.flush_entries               0                       # Number of entries that have been flushed from TLB
system.switch_cpus0.dtb.align_faults                0                       # Number of TLB faults due to alignment restrictions
system.switch_cpus0.dtb.prefetch_faults             0                       # Number of TLB faults due to prefetch
system.switch_cpus0.dtb.domain_faults               0                       # Number of TLB faults due to domain restrictions
system.switch_cpus0.dtb.perms_faults                0                       # Number of TLB faults due to permissions restrictions
system.switch_cpus0.dtb.read_accesses               0                       # DTB read accesses
system.switch_cpus0.dtb.write_accesses              0                       # DTB write accesses
system.switch_cpus0.dtb.inst_accesses               0                       # ITB inst accesses
system.switch_cpus0.dtb.hits                        0                       # DTB hits
system.switch_cpus0.dtb.misses                      0                       # DTB misses
system.switch_cpus0.dtb.accesses                    0                       # DTB accesses
system.switch_cpus0.itb.inst_hits                   0                       # ITB inst hits
system.switch_cpus0.itb.inst_misses                 0                       # ITB inst misses
system.switch_cpus0.itb.read_hits                   0                       # DTB read hits
system.switch_cpus0.itb.read_misses                 0                       # DTB read misses
system.switch_cpus0.itb.write_hits                  0                       # DTB write hits
system.switch_cpus0.itb.write_misses                0                       # DTB write misses
system.switch_cpus0.itb.flush_tlb                   0                       # Number of times complete TLB was flushed
system.switch_cpus0.itb.flush_tlb_mva               0                       # Number of times TLB was flushed by MVA
system.switch_cpus0.itb.flush_tlb_mva_asid            0                       # Number of times TLB was flushed by MVA & ASID
system.switch_cpus0.itb.flush_tlb_asid              0                       # Number of times TLB was flushed by ASID
system.switch_cpus0.itb.flush_entries               0                       # Number of entries that have been flushed from TLB
system.switch_cpus0.itb.align_faults                0                       # Number of TLB faults due to alignment restrictions
system.switch_cpus0.itb.prefetch_faults             0                       # Number of TLB faults due to prefetch
system.switch_cpus0.itb.domain_faults               0                       # Number of TLB faults due to domain restrictions
system.switch_cpus0.itb.perms_faults                0                       # Number of TLB faults due to permissions restrictions
system.switch_cpus0.itb.read_accesses               0                       # DTB read accesses
system.switch_cpus0.itb.write_accesses              0                       # DTB write accesses
system.switch_cpus0.itb.inst_accesses               0                       # ITB inst accesses
system.switch_cpus0.itb.hits                        0                       # DTB hits
system.switch_cpus0.itb.misses                      0                       # DTB misses
system.switch_cpus0.itb.accesses                    0                       # DTB accesses
system.cpu0.workload.num_syscalls                   5                       # Number of system calls
system.switch_cpus0.numCycles                26386007                       # number of cpu cycles simulated
system.switch_cpus0.numWorkItemsStarted             0                       # number of work items this cpu started
system.switch_cpus0.numWorkItemsCompleted            0                       # number of work items this cpu completed
system.switch_cpus0.BPredUnit.lookups         2072971                       # Number of BP lookups
system.switch_cpus0.BPredUnit.condPredicted      1700101                       # Number of conditional branches predicted
system.switch_cpus0.BPredUnit.condIncorrect       204977                       # Number of conditional branches incorrect
system.switch_cpus0.BPredUnit.BTBLookups       854183                       # Number of BTB lookups
system.switch_cpus0.BPredUnit.BTBHits          809061                       # Number of BTB hits
system.switch_cpus0.BPredUnit.BTBCorrect            0                       # Number of correct BTB predictions (this stat may not work properly.
system.switch_cpus0.BPredUnit.usedRAS          212449                       # Number of times the RAS was used to get a target.
system.switch_cpus0.BPredUnit.RASInCorrect         9096                       # Number of incorrect RAS predictions.
system.switch_cpus0.fetch.icacheStallCycles     19803541                       # Number of cycles fetch is stalled on an Icache miss
system.switch_cpus0.fetch.Insts              11788986                       # Number of instructions fetch has processed
system.switch_cpus0.fetch.Branches            2072971                       # Number of branches that fetch encountered
system.switch_cpus0.fetch.predictedBranches      1021510                       # Number of branches that fetch has predicted taken
system.switch_cpus0.fetch.Cycles              2592422                       # Number of cycles fetch has run and was not squashing or blocked
system.switch_cpus0.fetch.SquashCycles         583342                       # Number of cycles fetch has spent squashing
system.switch_cpus0.fetch.BlockedCycles       1122736                       # Number of cycles fetch has spent blocked
system.switch_cpus0.fetch.CacheLines          1221819                       # Number of cache lines fetched
system.switch_cpus0.fetch.IcacheSquashes       203504                       # Number of outstanding Icache misses that were squashed
system.switch_cpus0.fetch.rateDist::samples     23893696                       # Number of instructions fetched each cycle (Total)
system.switch_cpus0.fetch.rateDist::mean     0.603447                       # Number of instructions fetched each cycle (Total)
system.switch_cpus0.fetch.rateDist::stdev     1.949113                       # Number of instructions fetched each cycle (Total)
system.switch_cpus0.fetch.rateDist::underflows            0      0.00%      0.00% # Number of instructions fetched each cycle (Total)
system.switch_cpus0.fetch.rateDist::0        21301274     89.15%     89.15% # Number of instructions fetched each cycle (Total)
system.switch_cpus0.fetch.rateDist::1          280293      1.17%     90.32% # Number of instructions fetched each cycle (Total)
system.switch_cpus0.fetch.rateDist::2          323481      1.35%     91.68% # Number of instructions fetched each cycle (Total)
system.switch_cpus0.fetch.rateDist::3          178107      0.75%     92.42% # Number of instructions fetched each cycle (Total)
system.switch_cpus0.fetch.rateDist::4          208191      0.87%     93.29% # Number of instructions fetched each cycle (Total)
system.switch_cpus0.fetch.rateDist::5          113236      0.47%     93.77% # Number of instructions fetched each cycle (Total)
system.switch_cpus0.fetch.rateDist::6           77177      0.32%     94.09% # Number of instructions fetched each cycle (Total)
system.switch_cpus0.fetch.rateDist::7          200496      0.84%     94.93% # Number of instructions fetched each cycle (Total)
system.switch_cpus0.fetch.rateDist::8         1211441      5.07%    100.00% # Number of instructions fetched each cycle (Total)
system.switch_cpus0.fetch.rateDist::overflows            0      0.00%    100.00% # Number of instructions fetched each cycle (Total)
system.switch_cpus0.fetch.rateDist::min_value            0                       # Number of instructions fetched each cycle (Total)
system.switch_cpus0.fetch.rateDist::max_value            8                       # Number of instructions fetched each cycle (Total)
system.switch_cpus0.fetch.rateDist::total     23893696                       # Number of instructions fetched each cycle (Total)
system.switch_cpus0.fetch.branchRate         0.078563                       # Number of branch fetches per cycle
system.switch_cpus0.fetch.rate               0.446789                       # Number of inst fetches per cycle
system.switch_cpus0.decode.IdleCycles        19641877                       # Number of cycles decode is idle
system.switch_cpus0.decode.BlockedCycles      1287840                       # Number of cycles decode is blocked
system.switch_cpus0.decode.RunCycles          2571847                       # Number of cycles decode is running
system.switch_cpus0.decode.UnblockCycles        19279                       # Number of cycles decode is unblocking
system.switch_cpus0.decode.SquashCycles        372847                       # Number of cycles decode is squashing
system.switch_cpus0.decode.BranchResolved       335945                       # Number of times decode resolved a branch
system.switch_cpus0.decode.BranchMispred         2150                       # Number of times decode detected a branch misprediction
system.switch_cpus0.decode.DecodedInsts      14391616                       # Number of instructions handled by decode
system.switch_cpus0.decode.SquashedInsts        11341                       # Number of squashed instructions handled by decode
system.switch_cpus0.rename.SquashCycles        372847                       # Number of cycles rename is squashing
system.switch_cpus0.rename.IdleCycles        19672547                       # Number of cycles rename is idle
system.switch_cpus0.rename.BlockCycles         378949                       # Number of cycles rename is blocking
system.switch_cpus0.rename.serializeStallCycles       822553                       # count of cycles rename stalled for serializing inst
system.switch_cpus0.rename.RunCycles          2561563                       # Number of cycles rename is running
system.switch_cpus0.rename.UnblockCycles        85231                       # Number of cycles rename is unblocking
system.switch_cpus0.rename.RenamedInsts      14381801                       # Number of instructions processed by rename
system.switch_cpus0.rename.ROBFullEvents           14                       # Number of times rename has blocked due to ROB full
system.switch_cpus0.rename.IQFullEvents         22196                       # Number of times rename has blocked due to IQ full
system.switch_cpus0.rename.LSQFullEvents        39651                       # Number of times rename has blocked due to LSQ full
system.switch_cpus0.rename.RenamedOperands     19982045                       # Number of destination operands rename has renamed
system.switch_cpus0.rename.RenameLookups     66972408                       # Number of register rename lookups that rename has made
system.switch_cpus0.rename.int_rename_lookups     66972408                       # Number of integer rename lookups
system.switch_cpus0.rename.CommittedMaps     17025519                       # Number of HB maps that are committed
system.switch_cpus0.rename.UndoneMaps         2956509                       # Number of HB maps that are undone due to squashing
system.switch_cpus0.rename.serializingInsts         3838                       # count of serializing insts renamed
system.switch_cpus0.rename.tempSerializingInsts         2176                       # count of temporary serializing insts renamed
system.switch_cpus0.rename.skidInsts           230075                       # count of insts added to the skid buffer
system.switch_cpus0.memDep0.insertedLoads      1377157                       # Number of loads inserted to the mem dependence unit.
system.switch_cpus0.memDep0.insertedStores       748137                       # Number of stores inserted to the mem dependence unit.
system.switch_cpus0.memDep0.conflictingLoads        19888                       # Number of conflicting loads.
system.switch_cpus0.memDep0.conflictingStores       165296                       # Number of conflicting stores.
system.switch_cpus0.iq.iqInstsAdded          14357497                       # Number of instructions added to the IQ (excludes non-spec)
system.switch_cpus0.iq.iqNonSpecInstsAdded         3843                       # Number of non-speculative instructions added to the IQ
system.switch_cpus0.iq.iqInstsIssued         13554316                       # Number of instructions issued
system.switch_cpus0.iq.iqSquashedInstsIssued        18738                       # Number of squashed instructions issued
system.switch_cpus0.iq.iqSquashedInstsExamined      1820171                       # Number of squashed instructions iterated over during squash; mainly for profiling
system.switch_cpus0.iq.iqSquashedOperandsExamined      4228436                       # Number of squashed operands that are examined and possibly removed from graph
system.switch_cpus0.iq.iqSquashedNonSpecRemoved          500                       # Number of squashed non-spec instructions that were removed
system.switch_cpus0.iq.issued_per_cycle::samples     23893696                       # Number of insts issued each cycle
system.switch_cpus0.iq.issued_per_cycle::mean     0.567276                       # Number of insts issued each cycle
system.switch_cpus0.iq.issued_per_cycle::stdev     1.258340                       # Number of insts issued each cycle
system.switch_cpus0.iq.issued_per_cycle::underflows            0      0.00%      0.00% # Number of insts issued each cycle
system.switch_cpus0.iq.issued_per_cycle::0     18181204     76.09%     76.09% # Number of insts issued each cycle
system.switch_cpus0.iq.issued_per_cycle::1      2299590      9.62%     85.72% # Number of insts issued each cycle
system.switch_cpus0.iq.issued_per_cycle::2      1234232      5.17%     90.88% # Number of insts issued each cycle
system.switch_cpus0.iq.issued_per_cycle::3       852532      3.57%     94.45% # Number of insts issued each cycle
system.switch_cpus0.iq.issued_per_cycle::4       747450      3.13%     97.58% # Number of insts issued each cycle
system.switch_cpus0.iq.issued_per_cycle::5       382392      1.60%     99.18% # Number of insts issued each cycle
system.switch_cpus0.iq.issued_per_cycle::6        91724      0.38%     99.56% # Number of insts issued each cycle
system.switch_cpus0.iq.issued_per_cycle::7        60014      0.25%     99.81% # Number of insts issued each cycle
system.switch_cpus0.iq.issued_per_cycle::8        44558      0.19%    100.00% # Number of insts issued each cycle
system.switch_cpus0.iq.issued_per_cycle::overflows            0      0.00%    100.00% # Number of insts issued each cycle
system.switch_cpus0.iq.issued_per_cycle::min_value            0                       # Number of insts issued each cycle
system.switch_cpus0.iq.issued_per_cycle::max_value            8                       # Number of insts issued each cycle
system.switch_cpus0.iq.issued_per_cycle::total     23893696                       # Number of insts issued each cycle
system.switch_cpus0.iq.fu_full::No_OpClass            0      0.00%      0.00% # attempts to use FU when none available
system.switch_cpus0.iq.fu_full::IntAlu           3290     11.11%     11.11% # attempts to use FU when none available
system.switch_cpus0.iq.fu_full::IntMult             0      0.00%     11.11% # attempts to use FU when none available
system.switch_cpus0.iq.fu_full::IntDiv              0      0.00%     11.11% # attempts to use FU when none available
system.switch_cpus0.iq.fu_full::FloatAdd            0      0.00%     11.11% # attempts to use FU when none available
system.switch_cpus0.iq.fu_full::FloatCmp            0      0.00%     11.11% # attempts to use FU when none available
system.switch_cpus0.iq.fu_full::FloatCvt            0      0.00%     11.11% # attempts to use FU when none available
system.switch_cpus0.iq.fu_full::FloatMult            0      0.00%     11.11% # attempts to use FU when none available
system.switch_cpus0.iq.fu_full::FloatDiv            0      0.00%     11.11% # attempts to use FU when none available
system.switch_cpus0.iq.fu_full::FloatSqrt            0      0.00%     11.11% # attempts to use FU when none available
system.switch_cpus0.iq.fu_full::SimdAdd             0      0.00%     11.11% # attempts to use FU when none available
system.switch_cpus0.iq.fu_full::SimdAddAcc            0      0.00%     11.11% # attempts to use FU when none available
system.switch_cpus0.iq.fu_full::SimdAlu             0      0.00%     11.11% # attempts to use FU when none available
system.switch_cpus0.iq.fu_full::SimdCmp             0      0.00%     11.11% # attempts to use FU when none available
system.switch_cpus0.iq.fu_full::SimdCvt             0      0.00%     11.11% # attempts to use FU when none available
system.switch_cpus0.iq.fu_full::SimdMisc            0      0.00%     11.11% # attempts to use FU when none available
system.switch_cpus0.iq.fu_full::SimdMult            0      0.00%     11.11% # attempts to use FU when none available
system.switch_cpus0.iq.fu_full::SimdMultAcc            0      0.00%     11.11% # attempts to use FU when none available
system.switch_cpus0.iq.fu_full::SimdShift            0      0.00%     11.11% # attempts to use FU when none available
system.switch_cpus0.iq.fu_full::SimdShiftAcc            0      0.00%     11.11% # attempts to use FU when none available
system.switch_cpus0.iq.fu_full::SimdSqrt            0      0.00%     11.11% # attempts to use FU when none available
system.switch_cpus0.iq.fu_full::SimdFloatAdd            0      0.00%     11.11% # attempts to use FU when none available
system.switch_cpus0.iq.fu_full::SimdFloatAlu            0      0.00%     11.11% # attempts to use FU when none available
system.switch_cpus0.iq.fu_full::SimdFloatCmp            0      0.00%     11.11% # attempts to use FU when none available
system.switch_cpus0.iq.fu_full::SimdFloatCvt            0      0.00%     11.11% # attempts to use FU when none available
system.switch_cpus0.iq.fu_full::SimdFloatDiv            0      0.00%     11.11% # attempts to use FU when none available
system.switch_cpus0.iq.fu_full::SimdFloatMisc            0      0.00%     11.11% # attempts to use FU when none available
system.switch_cpus0.iq.fu_full::SimdFloatMult            0      0.00%     11.11% # attempts to use FU when none available
system.switch_cpus0.iq.fu_full::SimdFloatMultAcc            0      0.00%     11.11% # attempts to use FU when none available
system.switch_cpus0.iq.fu_full::SimdFloatSqrt            0      0.00%     11.11% # attempts to use FU when none available
system.switch_cpus0.iq.fu_full::MemRead         13023     43.97%     55.08% # attempts to use FU when none available
system.switch_cpus0.iq.fu_full::MemWrite        13304     44.92%    100.00% # attempts to use FU when none available
system.switch_cpus0.iq.fu_full::IprAccess            0      0.00%    100.00% # attempts to use FU when none available
system.switch_cpus0.iq.fu_full::InstPrefetch            0      0.00%    100.00% # attempts to use FU when none available
system.switch_cpus0.iq.FU_type_0::No_OpClass            0      0.00%      0.00% # Type of FU issued
system.switch_cpus0.iq.FU_type_0::IntAlu     11343524     83.69%     83.69% # Type of FU issued
system.switch_cpus0.iq.FU_type_0::IntMult       212016      1.56%     85.25% # Type of FU issued
system.switch_cpus0.iq.FU_type_0::IntDiv            0      0.00%     85.25% # Type of FU issued
system.switch_cpus0.iq.FU_type_0::FloatAdd            0      0.00%     85.25% # Type of FU issued
system.switch_cpus0.iq.FU_type_0::FloatCmp            0      0.00%     85.25% # Type of FU issued
system.switch_cpus0.iq.FU_type_0::FloatCvt            0      0.00%     85.25% # Type of FU issued
system.switch_cpus0.iq.FU_type_0::FloatMult            0      0.00%     85.25% # Type of FU issued
system.switch_cpus0.iq.FU_type_0::FloatDiv            0      0.00%     85.25% # Type of FU issued
system.switch_cpus0.iq.FU_type_0::FloatSqrt            0      0.00%     85.25% # Type of FU issued
system.switch_cpus0.iq.FU_type_0::SimdAdd            0      0.00%     85.25% # Type of FU issued
system.switch_cpus0.iq.FU_type_0::SimdAddAcc            0      0.00%     85.25% # Type of FU issued
system.switch_cpus0.iq.FU_type_0::SimdAlu            0      0.00%     85.25% # Type of FU issued
system.switch_cpus0.iq.FU_type_0::SimdCmp            0      0.00%     85.25% # Type of FU issued
system.switch_cpus0.iq.FU_type_0::SimdCvt            0      0.00%     85.25% # Type of FU issued
system.switch_cpus0.iq.FU_type_0::SimdMisc            0      0.00%     85.25% # Type of FU issued
system.switch_cpus0.iq.FU_type_0::SimdMult            0      0.00%     85.25% # Type of FU issued
system.switch_cpus0.iq.FU_type_0::SimdMultAcc            0      0.00%     85.25% # Type of FU issued
system.switch_cpus0.iq.FU_type_0::SimdShift            0      0.00%     85.25% # Type of FU issued
system.switch_cpus0.iq.FU_type_0::SimdShiftAcc            0      0.00%     85.25% # Type of FU issued
system.switch_cpus0.iq.FU_type_0::SimdSqrt            0      0.00%     85.25% # Type of FU issued
system.switch_cpus0.iq.FU_type_0::SimdFloatAdd            0      0.00%     85.25% # Type of FU issued
system.switch_cpus0.iq.FU_type_0::SimdFloatAlu            0      0.00%     85.25% # Type of FU issued
system.switch_cpus0.iq.FU_type_0::SimdFloatCmp            0      0.00%     85.25% # Type of FU issued
system.switch_cpus0.iq.FU_type_0::SimdFloatCvt            0      0.00%     85.25% # Type of FU issued
system.switch_cpus0.iq.FU_type_0::SimdFloatDiv            0      0.00%     85.25% # Type of FU issued
system.switch_cpus0.iq.FU_type_0::SimdFloatMisc         1658      0.01%     85.27% # Type of FU issued
system.switch_cpus0.iq.FU_type_0::SimdFloatMult            0      0.00%     85.27% # Type of FU issued
system.switch_cpus0.iq.FU_type_0::SimdFloatMultAcc            0      0.00%     85.27% # Type of FU issued
system.switch_cpus0.iq.FU_type_0::SimdFloatSqrt            0      0.00%     85.27% # Type of FU issued
system.switch_cpus0.iq.FU_type_0::MemRead      1254976      9.26%     94.52% # Type of FU issued
system.switch_cpus0.iq.FU_type_0::MemWrite       742142      5.48%    100.00% # Type of FU issued
system.switch_cpus0.iq.FU_type_0::IprAccess            0      0.00%    100.00% # Type of FU issued
system.switch_cpus0.iq.FU_type_0::InstPrefetch            0      0.00%    100.00% # Type of FU issued
system.switch_cpus0.iq.FU_type_0::total      13554316                       # Type of FU issued
system.switch_cpus0.iq.rate                  0.513693                       # Inst issue rate
system.switch_cpus0.iq.fu_busy_cnt              29617                       # FU busy when requested
system.switch_cpus0.iq.fu_busy_rate          0.002185                       # FU busy rate (busy events/executed inst)
system.switch_cpus0.iq.int_inst_queue_reads     51050682                       # Number of integer instruction queue reads
system.switch_cpus0.iq.int_inst_queue_writes     16181646                       # Number of integer instruction queue writes
system.switch_cpus0.iq.int_inst_queue_wakeup_accesses     13326091                       # Number of integer instruction queue wakeup accesses
system.switch_cpus0.iq.fp_inst_queue_reads            0                       # Number of floating instruction queue reads
system.switch_cpus0.iq.fp_inst_queue_writes            0                       # Number of floating instruction queue writes
system.switch_cpus0.iq.fp_inst_queue_wakeup_accesses            0                       # Number of floating instruction queue wakeup accesses
system.switch_cpus0.iq.int_alu_accesses      13583933                       # Number of integer alu accesses
system.switch_cpus0.iq.fp_alu_accesses              0                       # Number of floating point alu accesses
system.switch_cpus0.iew.lsq.thread0.forwLoads        34227                       # Number of loads that had data forwarded from stores
system.switch_cpus0.iew.lsq.thread0.invAddrLoads            0                       # Number of loads ignored due to an invalid address
system.switch_cpus0.iew.lsq.thread0.squashedLoads       248416                       # Number of loads squashed
system.switch_cpus0.iew.lsq.thread0.ignoredResponses           86                       # Number of memory responses ignored because the instruction is squashed
system.switch_cpus0.iew.lsq.thread0.memOrderViolation          141                       # Number of memory ordering violations
system.switch_cpus0.iew.lsq.thread0.squashedStores        17592                       # Number of stores squashed
system.switch_cpus0.iew.lsq.thread0.invAddrSwpfs            0                       # Number of software prefetches ignored due to an invalid address
system.switch_cpus0.iew.lsq.thread0.blockedLoads            0                       # Number of blocked loads due to partial load-store forwarding
system.switch_cpus0.iew.lsq.thread0.rescheduledLoads          829                       # Number of loads that were rescheduled
system.switch_cpus0.iew.lsq.thread0.cacheBlocked           96                       # Number of times an access to memory failed due to the cache being blocked
system.switch_cpus0.iew.iewIdleCycles               0                       # Number of cycles IEW is idle
system.switch_cpus0.iew.iewSquashCycles        372847                       # Number of cycles IEW is squashing
system.switch_cpus0.iew.iewBlockCycles         331598                       # Number of cycles IEW is blocking
system.switch_cpus0.iew.iewUnblockCycles        14135                       # Number of cycles IEW is unblocking
system.switch_cpus0.iew.iewDispatchedInsts     14361363                       # Number of instructions dispatched to IQ
system.switch_cpus0.iew.iewDispSquashedInsts         6254                       # Number of squashed instructions skipped by dispatch
system.switch_cpus0.iew.iewDispLoadInsts      1377157                       # Number of dispatched load instructions
system.switch_cpus0.iew.iewDispStoreInsts       748137                       # Number of dispatched store instructions
system.switch_cpus0.iew.iewDispNonSpecInsts         2173                       # Number of dispatched non-speculative instructions
system.switch_cpus0.iew.iewIQFullEvents          9708                       # Number of times the IQ has become full, causing a stall
system.switch_cpus0.iew.iewLSQFullEvents            0                       # Number of times the LSQ has become full, causing a stall
system.switch_cpus0.iew.memOrderViolationEvents          141                       # Number of memory order violations
system.switch_cpus0.iew.predictedTakenIncorrect       118042                       # Number of branches that were predicted taken incorrectly
system.switch_cpus0.iew.predictedNotTakenIncorrect       115692                       # Number of branches that were predicted not taken incorrectly
system.switch_cpus0.iew.branchMispredicts       233734                       # Number of branch mispredicts detected at execute
system.switch_cpus0.iew.iewExecutedInsts     13351928                       # Number of executed instructions
system.switch_cpus0.iew.iewExecLoadInsts      1177704                       # Number of load instructions executed
system.switch_cpus0.iew.iewExecSquashedInsts       202387                       # Number of squashed instructions skipped in execute
system.switch_cpus0.iew.exec_swp                    0                       # number of swp insts executed
system.switch_cpus0.iew.exec_nop                   23                       # number of nop insts executed
system.switch_cpus0.iew.exec_refs             1919582                       # number of memory reference insts executed
system.switch_cpus0.iew.exec_branches         1867306                       # Number of branches executed
system.switch_cpus0.iew.exec_stores            741878                       # Number of stores executed
system.switch_cpus0.iew.exec_rate            0.506023                       # Inst execution rate
system.switch_cpus0.iew.wb_sent              13326400                       # cumulative count of insts sent to commit
system.switch_cpus0.iew.wb_count             13326091                       # cumulative count of insts written-back
system.switch_cpus0.iew.wb_producers          7923353                       # num instructions producing a value
system.switch_cpus0.iew.wb_consumers         20756781                       # num instructions consuming a value
system.switch_cpus0.iew.wb_penalized                0                       # number of instrctions required to write to 'other' IQ
system.switch_cpus0.iew.wb_rate              0.505044                       # insts written-back per cycle
system.switch_cpus0.iew.wb_fanout            0.381724                       # average fanout of values written-back
system.switch_cpus0.iew.wb_penalized_rate            0                       # fraction of instructions written-back that wrote to 'other' IQ
system.switch_cpus0.commit.commitCommittedInsts     10000001                       # The number of committed instructions
system.switch_cpus0.commit.commitCommittedOps     12268684                       # The number of committed instructions
system.switch_cpus0.commit.commitSquashedInsts      2092769                       # The number of squashed insts skipped by commit
system.switch_cpus0.commit.commitNonSpecStalls         3343                       # The number of times commit has been forced to stall to communicate backwards
system.switch_cpus0.commit.branchMispredicts       206015                       # The number of times a branch was mispredicted
system.switch_cpus0.commit.committed_per_cycle::samples     23520849                       # Number of insts commited each cycle
system.switch_cpus0.commit.committed_per_cycle::mean     0.521609                       # Number of insts commited each cycle
system.switch_cpus0.commit.committed_per_cycle::stdev     1.339502                       # Number of insts commited each cycle
system.switch_cpus0.commit.committed_per_cycle::underflows            0      0.00%      0.00% # Number of insts commited each cycle
system.switch_cpus0.commit.committed_per_cycle::0     18508487     78.69%     78.69% # Number of insts commited each cycle
system.switch_cpus0.commit.committed_per_cycle::1      2324203      9.88%     88.57% # Number of insts commited each cycle
system.switch_cpus0.commit.committed_per_cycle::2       975130      4.15%     92.72% # Number of insts commited each cycle
system.switch_cpus0.commit.committed_per_cycle::3       584229      2.48%     95.20% # Number of insts commited each cycle
system.switch_cpus0.commit.committed_per_cycle::4       405669      1.72%     96.93% # Number of insts commited each cycle
system.switch_cpus0.commit.committed_per_cycle::5       261313      1.11%     98.04% # Number of insts commited each cycle
system.switch_cpus0.commit.committed_per_cycle::6       136592      0.58%     98.62% # Number of insts commited each cycle
system.switch_cpus0.commit.committed_per_cycle::7       109067      0.46%     99.08% # Number of insts commited each cycle
system.switch_cpus0.commit.committed_per_cycle::8       216159      0.92%    100.00% # Number of insts commited each cycle
system.switch_cpus0.commit.committed_per_cycle::overflows            0      0.00%    100.00% # Number of insts commited each cycle
system.switch_cpus0.commit.committed_per_cycle::min_value            0                       # Number of insts commited each cycle
system.switch_cpus0.commit.committed_per_cycle::max_value            8                       # Number of insts commited each cycle
system.switch_cpus0.commit.committed_per_cycle::total     23520849                       # Number of insts commited each cycle
system.switch_cpus0.commit.committedInsts     10000001                       # Number of instructions committed
system.switch_cpus0.commit.committedOps      12268684                       # Number of ops (including micro ops) committed
system.switch_cpus0.commit.swp_count                0                       # Number of s/w prefetches committed
system.switch_cpus0.commit.refs               1859286                       # Number of memory references committed
system.switch_cpus0.commit.loads              1128741                       # Number of loads committed
system.switch_cpus0.commit.membars               1668                       # Number of memory barriers committed
system.switch_cpus0.commit.branches           1755765                       # Number of branches committed
system.switch_cpus0.commit.fp_insts                 0                       # Number of committed floating point instructions.
system.switch_cpus0.commit.int_insts         11060836                       # Number of committed integer instructions.
system.switch_cpus0.commit.function_calls       249611                       # Number of function calls committed.
system.switch_cpus0.commit.bw_lim_events       216159                       # number cycles where commit BW limit reached
system.switch_cpus0.commit.bw_limited               0                       # number of insts not committed due to BW limits
system.switch_cpus0.rob.rob_reads            37666078                       # The number of ROB reads
system.switch_cpus0.rob.rob_writes           29095781                       # The number of ROB writes
system.switch_cpus0.timesIdled                 306158                       # Number of times that the entire CPU went into an idle state and unscheduled itself
system.switch_cpus0.idleCycles                2492311                       # Total number of cycles that the CPU has spent unscheduled due to idling
system.switch_cpus0.committedInsts           10000001                       # Number of Instructions Simulated
system.switch_cpus0.committedOps             12268684                       # Number of Ops (including micro ops) Simulated
system.switch_cpus0.committedInsts_total     10000001                       # Number of Instructions Simulated
system.switch_cpus0.cpi                      2.638600                       # CPI: Cycles Per Instruction
system.switch_cpus0.cpi_total                2.638600                       # CPI: Total CPI of All Threads
system.switch_cpus0.ipc                      0.378989                       # IPC: Instructions Per Cycle
system.switch_cpus0.ipc_total                0.378989                       # IPC: Total IPC of All Threads
system.switch_cpus0.int_regfile_reads        60233338                       # number of integer regfile reads
system.switch_cpus0.int_regfile_writes       18494657                       # number of integer regfile writes
system.switch_cpus0.misc_regfile_reads       13429648                       # number of misc regfile reads
system.switch_cpus0.misc_regfile_writes          3340                       # number of misc regfile writes
system.switch_cpus1.dtb.inst_hits                   0                       # ITB inst hits
system.switch_cpus1.dtb.inst_misses                 0                       # ITB inst misses
system.switch_cpus1.dtb.read_hits                   0                       # DTB read hits
system.switch_cpus1.dtb.read_misses                 0                       # DTB read misses
system.switch_cpus1.dtb.write_hits                  0                       # DTB write hits
system.switch_cpus1.dtb.write_misses                0                       # DTB write misses
system.switch_cpus1.dtb.flush_tlb                   0                       # Number of times complete TLB was flushed
system.switch_cpus1.dtb.flush_tlb_mva               0                       # Number of times TLB was flushed by MVA
system.switch_cpus1.dtb.flush_tlb_mva_asid            0                       # Number of times TLB was flushed by MVA & ASID
system.switch_cpus1.dtb.flush_tlb_asid              0                       # Number of times TLB was flushed by ASID
system.switch_cpus1.dtb.flush_entries               0                       # Number of entries that have been flushed from TLB
system.switch_cpus1.dtb.align_faults                0                       # Number of TLB faults due to alignment restrictions
system.switch_cpus1.dtb.prefetch_faults             0                       # Number of TLB faults due to prefetch
system.switch_cpus1.dtb.domain_faults               0                       # Number of TLB faults due to domain restrictions
system.switch_cpus1.dtb.perms_faults                0                       # Number of TLB faults due to permissions restrictions
system.switch_cpus1.dtb.read_accesses               0                       # DTB read accesses
system.switch_cpus1.dtb.write_accesses              0                       # DTB write accesses
system.switch_cpus1.dtb.inst_accesses               0                       # ITB inst accesses
system.switch_cpus1.dtb.hits                        0                       # DTB hits
system.switch_cpus1.dtb.misses                      0                       # DTB misses
system.switch_cpus1.dtb.accesses                    0                       # DTB accesses
system.switch_cpus1.itb.inst_hits                   0                       # ITB inst hits
system.switch_cpus1.itb.inst_misses                 0                       # ITB inst misses
system.switch_cpus1.itb.read_hits                   0                       # DTB read hits
system.switch_cpus1.itb.read_misses                 0                       # DTB read misses
system.switch_cpus1.itb.write_hits                  0                       # DTB write hits
system.switch_cpus1.itb.write_misses                0                       # DTB write misses
system.switch_cpus1.itb.flush_tlb                   0                       # Number of times complete TLB was flushed
system.switch_cpus1.itb.flush_tlb_mva               0                       # Number of times TLB was flushed by MVA
system.switch_cpus1.itb.flush_tlb_mva_asid            0                       # Number of times TLB was flushed by MVA & ASID
system.switch_cpus1.itb.flush_tlb_asid              0                       # Number of times TLB was flushed by ASID
system.switch_cpus1.itb.flush_entries               0                       # Number of entries that have been flushed from TLB
system.switch_cpus1.itb.align_faults                0                       # Number of TLB faults due to alignment restrictions
system.switch_cpus1.itb.prefetch_faults             0                       # Number of TLB faults due to prefetch
system.switch_cpus1.itb.domain_faults               0                       # Number of TLB faults due to domain restrictions
system.switch_cpus1.itb.perms_faults                0                       # Number of TLB faults due to permissions restrictions
system.switch_cpus1.itb.read_accesses               0                       # DTB read accesses
system.switch_cpus1.itb.write_accesses              0                       # DTB write accesses
system.switch_cpus1.itb.inst_accesses               0                       # ITB inst accesses
system.switch_cpus1.itb.hits                        0                       # DTB hits
system.switch_cpus1.itb.misses                      0                       # DTB misses
system.switch_cpus1.itb.accesses                    0                       # DTB accesses
system.cpu1.workload.num_syscalls                   3                       # Number of system calls
system.switch_cpus1.numCycles                26386007                       # number of cpu cycles simulated
system.switch_cpus1.numWorkItemsStarted             0                       # number of work items this cpu started
system.switch_cpus1.numWorkItemsCompleted            0                       # number of work items this cpu completed
system.switch_cpus1.BPredUnit.lookups         1966396                       # Number of BP lookups
system.switch_cpus1.BPredUnit.condPredicted      1774038                       # Number of conditional branches predicted
system.switch_cpus1.BPredUnit.condIncorrect       105540                       # Number of conditional branches incorrect
system.switch_cpus1.BPredUnit.BTBLookups       730412                       # Number of BTB lookups
system.switch_cpus1.BPredUnit.BTBHits          699952                       # Number of BTB hits
system.switch_cpus1.BPredUnit.BTBCorrect            0                       # Number of correct BTB predictions (this stat may not work properly.
system.switch_cpus1.BPredUnit.usedRAS          108236                       # Number of times the RAS was used to get a target.
system.switch_cpus1.BPredUnit.RASInCorrect         4595                       # Number of incorrect RAS predictions.
system.switch_cpus1.fetch.icacheStallCycles     20831201                       # Number of cycles fetch is stalled on an Icache miss
system.switch_cpus1.fetch.Insts              12369238                       # Number of instructions fetch has processed
system.switch_cpus1.fetch.Branches            1966396                       # Number of branches that fetch encountered
system.switch_cpus1.fetch.predictedBranches       808188                       # Number of branches that fetch has predicted taken
system.switch_cpus1.fetch.Cycles              2443979                       # Number of cycles fetch has run and was not squashing or blocked
system.switch_cpus1.fetch.SquashCycles         332427                       # Number of cycles fetch has spent squashing
system.switch_cpus1.fetch.BlockedCycles       1322394                       # Number of cycles fetch has spent blocked
system.switch_cpus1.fetch.CacheLines          1197795                       # Number of cache lines fetched
system.switch_cpus1.fetch.IcacheSquashes       105871                       # Number of outstanding Icache misses that were squashed
system.switch_cpus1.fetch.rateDist::samples     24821875                       # Number of instructions fetched each cycle (Total)
system.switch_cpus1.fetch.rateDist::mean     0.584753                       # Number of instructions fetched each cycle (Total)
system.switch_cpus1.fetch.rateDist::stdev     1.904246                       # Number of instructions fetched each cycle (Total)
system.switch_cpus1.fetch.rateDist::underflows            0      0.00%      0.00% # Number of instructions fetched each cycle (Total)
system.switch_cpus1.fetch.rateDist::0        22377896     90.15%     90.15% # Number of instructions fetched each cycle (Total)
system.switch_cpus1.fetch.rateDist::1           86700      0.35%     90.50% # Number of instructions fetched each cycle (Total)
system.switch_cpus1.fetch.rateDist::2          178058      0.72%     91.22% # Number of instructions fetched each cycle (Total)
system.switch_cpus1.fetch.rateDist::3           74530      0.30%     91.52% # Number of instructions fetched each cycle (Total)
system.switch_cpus1.fetch.rateDist::4          404942      1.63%     93.15% # Number of instructions fetched each cycle (Total)
system.switch_cpus1.fetch.rateDist::5          361153      1.45%     94.61% # Number of instructions fetched each cycle (Total)
system.switch_cpus1.fetch.rateDist::6           69194      0.28%     94.89% # Number of instructions fetched each cycle (Total)
system.switch_cpus1.fetch.rateDist::7          147662      0.59%     95.48% # Number of instructions fetched each cycle (Total)
system.switch_cpus1.fetch.rateDist::8         1121740      4.52%    100.00% # Number of instructions fetched each cycle (Total)
system.switch_cpus1.fetch.rateDist::overflows            0      0.00%    100.00% # Number of instructions fetched each cycle (Total)
system.switch_cpus1.fetch.rateDist::min_value            0                       # Number of instructions fetched each cycle (Total)
system.switch_cpus1.fetch.rateDist::max_value            8                       # Number of instructions fetched each cycle (Total)
system.switch_cpus1.fetch.rateDist::total     24821875                       # Number of instructions fetched each cycle (Total)
system.switch_cpus1.fetch.branchRate         0.074524                       # Number of branch fetches per cycle
system.switch_cpus1.fetch.rate               0.468780                       # Number of inst fetches per cycle
system.switch_cpus1.decode.IdleCycles        20694917                       # Number of cycles decode is idle
system.switch_cpus1.decode.BlockedCycles      1460262                       # Number of cycles decode is blocked
system.switch_cpus1.decode.RunCycles          2434990                       # Number of cycles decode is running
system.switch_cpus1.decode.UnblockCycles         7649                       # Number of cycles decode is unblocking
system.switch_cpus1.decode.SquashCycles        224052                       # Number of cycles decode is squashing
system.switch_cpus1.decode.BranchResolved       172732                       # Number of times decode resolved a branch
system.switch_cpus1.decode.BranchMispred          249                       # Number of times decode detected a branch misprediction
system.switch_cpus1.decode.DecodedInsts      14505109                       # Number of instructions handled by decode
system.switch_cpus1.decode.SquashedInsts         1513                       # Number of squashed instructions handled by decode
system.switch_cpus1.rename.SquashCycles        224052                       # Number of cycles rename is squashing
system.switch_cpus1.rename.IdleCycles        20718655                       # Number of cycles rename is idle
system.switch_cpus1.rename.BlockCycles        1272088                       # Number of cycles rename is blocking
system.switch_cpus1.rename.serializeStallCycles       114356                       # count of cycles rename stalled for serializing inst
system.switch_cpus1.rename.RunCycles          2420628                       # Number of cycles rename is running
system.switch_cpus1.rename.UnblockCycles        72089                       # Number of cycles rename is unblocking
system.switch_cpus1.rename.RenamedInsts      14496299                       # Number of instructions processed by rename
system.switch_cpus1.rename.ROBFullEvents           69                       # Number of times rename has blocked due to ROB full
system.switch_cpus1.rename.IQFullEvents         30925                       # Number of times rename has blocked due to IQ full
system.switch_cpus1.rename.LSQFullEvents        26288                       # Number of times rename has blocked due to LSQ full
system.switch_cpus1.rename.FullRegisterEvents          500                       # Number of times there has been no free registers
system.switch_cpus1.rename.RenamedOperands     17031154                       # Number of destination operands rename has renamed
system.switch_cpus1.rename.RenameLookups     68271258                       # Number of register rename lookups that rename has made
system.switch_cpus1.rename.int_rename_lookups     68271258                       # Number of integer rename lookups
system.switch_cpus1.rename.CommittedMaps     15060924                       # Number of HB maps that are committed
system.switch_cpus1.rename.UndoneMaps         1970222                       # Number of HB maps that are undone due to squashing
system.switch_cpus1.rename.serializingInsts         1694                       # count of serializing insts renamed
system.switch_cpus1.rename.tempSerializingInsts          862                       # count of temporary serializing insts renamed
system.switch_cpus1.rename.skidInsts           181730                       # count of insts added to the skid buffer
system.switch_cpus1.memDep0.insertedLoads      3416788                       # Number of loads inserted to the mem dependence unit.
system.switch_cpus1.memDep0.insertedStores      1726174                       # Number of stores inserted to the mem dependence unit.
system.switch_cpus1.memDep0.conflictingLoads        15651                       # Number of conflicting loads.
system.switch_cpus1.memDep0.conflictingStores        84098                       # Number of conflicting stores.
system.switch_cpus1.iq.iqInstsAdded          14466080                       # Number of instructions added to the IQ (excludes non-spec)
system.switch_cpus1.iq.iqNonSpecInstsAdded         1701                       # Number of non-speculative instructions added to the IQ
system.switch_cpus1.iq.iqInstsIssued         13893085                       # Number of instructions issued
system.switch_cpus1.iq.iqSquashedInstsIssued         8094                       # Number of squashed instructions issued
system.switch_cpus1.iq.iqSquashedInstsExamined      1144622                       # Number of squashed instructions iterated over during squash; mainly for profiling
system.switch_cpus1.iq.iqSquashedOperandsExamined      2751894                       # Number of squashed operands that are examined and possibly removed from graph
system.switch_cpus1.iq.iqSquashedNonSpecRemoved           22                       # Number of squashed non-spec instructions that were removed
system.switch_cpus1.iq.issued_per_cycle::samples     24821875                       # Number of insts issued each cycle
system.switch_cpus1.iq.issued_per_cycle::mean     0.559711                       # Number of insts issued each cycle
system.switch_cpus1.iq.issued_per_cycle::stdev     1.355186                       # Number of insts issued each cycle
system.switch_cpus1.iq.issued_per_cycle::underflows            0      0.00%      0.00% # Number of insts issued each cycle
system.switch_cpus1.iq.issued_per_cycle::0     19869187     80.05%     80.05% # Number of insts issued each cycle
system.switch_cpus1.iq.issued_per_cycle::1      1489989      6.00%     86.05% # Number of insts issued each cycle
system.switch_cpus1.iq.issued_per_cycle::2      1221469      4.92%     90.97% # Number of insts issued each cycle
system.switch_cpus1.iq.issued_per_cycle::3       527547      2.13%     93.10% # Number of insts issued each cycle
system.switch_cpus1.iq.issued_per_cycle::4       665533      2.68%     95.78% # Number of insts issued each cycle
system.switch_cpus1.iq.issued_per_cycle::5       638135      2.57%     98.35% # Number of insts issued each cycle
system.switch_cpus1.iq.issued_per_cycle::6       363363      1.46%     99.81% # Number of insts issued each cycle
system.switch_cpus1.iq.issued_per_cycle::7        28684      0.12%     99.93% # Number of insts issued each cycle
system.switch_cpus1.iq.issued_per_cycle::8        17968      0.07%    100.00% # Number of insts issued each cycle
system.switch_cpus1.iq.issued_per_cycle::overflows            0      0.00%    100.00% # Number of insts issued each cycle
system.switch_cpus1.iq.issued_per_cycle::min_value            0                       # Number of insts issued each cycle
system.switch_cpus1.iq.issued_per_cycle::max_value            8                       # Number of insts issued each cycle
system.switch_cpus1.iq.issued_per_cycle::total     24821875                       # Number of insts issued each cycle
system.switch_cpus1.iq.fu_full::No_OpClass            0      0.00%      0.00% # attempts to use FU when none available
system.switch_cpus1.iq.fu_full::IntAlu          35129     11.18%     11.18% # attempts to use FU when none available
system.switch_cpus1.iq.fu_full::IntMult             0      0.00%     11.18% # attempts to use FU when none available
system.switch_cpus1.iq.fu_full::IntDiv              0      0.00%     11.18% # attempts to use FU when none available
system.switch_cpus1.iq.fu_full::FloatAdd            0      0.00%     11.18% # attempts to use FU when none available
system.switch_cpus1.iq.fu_full::FloatCmp            0      0.00%     11.18% # attempts to use FU when none available
system.switch_cpus1.iq.fu_full::FloatCvt            0      0.00%     11.18% # attempts to use FU when none available
system.switch_cpus1.iq.fu_full::FloatMult            0      0.00%     11.18% # attempts to use FU when none available
system.switch_cpus1.iq.fu_full::FloatDiv            0      0.00%     11.18% # attempts to use FU when none available
system.switch_cpus1.iq.fu_full::FloatSqrt            0      0.00%     11.18% # attempts to use FU when none available
system.switch_cpus1.iq.fu_full::SimdAdd             0      0.00%     11.18% # attempts to use FU when none available
system.switch_cpus1.iq.fu_full::SimdAddAcc            0      0.00%     11.18% # attempts to use FU when none available
system.switch_cpus1.iq.fu_full::SimdAlu             0      0.00%     11.18% # attempts to use FU when none available
system.switch_cpus1.iq.fu_full::SimdCmp             0      0.00%     11.18% # attempts to use FU when none available
system.switch_cpus1.iq.fu_full::SimdCvt             0      0.00%     11.18% # attempts to use FU when none available
system.switch_cpus1.iq.fu_full::SimdMisc            0      0.00%     11.18% # attempts to use FU when none available
system.switch_cpus1.iq.fu_full::SimdMult            0      0.00%     11.18% # attempts to use FU when none available
system.switch_cpus1.iq.fu_full::SimdMultAcc            0      0.00%     11.18% # attempts to use FU when none available
system.switch_cpus1.iq.fu_full::SimdShift            0      0.00%     11.18% # attempts to use FU when none available
system.switch_cpus1.iq.fu_full::SimdShiftAcc            0      0.00%     11.18% # attempts to use FU when none available
system.switch_cpus1.iq.fu_full::SimdSqrt            0      0.00%     11.18% # attempts to use FU when none available
system.switch_cpus1.iq.fu_full::SimdFloatAdd            0      0.00%     11.18% # attempts to use FU when none available
system.switch_cpus1.iq.fu_full::SimdFloatAlu            0      0.00%     11.18% # attempts to use FU when none available
system.switch_cpus1.iq.fu_full::SimdFloatCmp            0      0.00%     11.18% # attempts to use FU when none available
system.switch_cpus1.iq.fu_full::SimdFloatCvt            0      0.00%     11.18% # attempts to use FU when none available
system.switch_cpus1.iq.fu_full::SimdFloatDiv            0      0.00%     11.18% # attempts to use FU when none available
system.switch_cpus1.iq.fu_full::SimdFloatMisc            0      0.00%     11.18% # attempts to use FU when none available
system.switch_cpus1.iq.fu_full::SimdFloatMult            0      0.00%     11.18% # attempts to use FU when none available
system.switch_cpus1.iq.fu_full::SimdFloatMultAcc            0      0.00%     11.18% # attempts to use FU when none available
system.switch_cpus1.iq.fu_full::SimdFloatSqrt            0      0.00%     11.18% # attempts to use FU when none available
system.switch_cpus1.iq.fu_full::MemRead        271289     86.32%     97.50% # attempts to use FU when none available
system.switch_cpus1.iq.fu_full::MemWrite         7861      2.50%    100.00% # attempts to use FU when none available
system.switch_cpus1.iq.fu_full::IprAccess            0      0.00%    100.00% # attempts to use FU when none available
system.switch_cpus1.iq.fu_full::InstPrefetch            0      0.00%    100.00% # attempts to use FU when none available
system.switch_cpus1.iq.FU_type_0::No_OpClass            0      0.00%      0.00% # Type of FU issued
system.switch_cpus1.iq.FU_type_0::IntAlu      8721005     62.77%     62.77% # Type of FU issued
system.switch_cpus1.iq.FU_type_0::IntMult       121383      0.87%     63.65% # Type of FU issued
system.switch_cpus1.iq.FU_type_0::IntDiv            0      0.00%     63.65% # Type of FU issued
system.switch_cpus1.iq.FU_type_0::FloatAdd            0      0.00%     63.65% # Type of FU issued
system.switch_cpus1.iq.FU_type_0::FloatCmp            0      0.00%     63.65% # Type of FU issued
system.switch_cpus1.iq.FU_type_0::FloatCvt            0      0.00%     63.65% # Type of FU issued
system.switch_cpus1.iq.FU_type_0::FloatMult            0      0.00%     63.65% # Type of FU issued
system.switch_cpus1.iq.FU_type_0::FloatDiv            0      0.00%     63.65% # Type of FU issued
system.switch_cpus1.iq.FU_type_0::FloatSqrt            0      0.00%     63.65% # Type of FU issued
system.switch_cpus1.iq.FU_type_0::SimdAdd            0      0.00%     63.65% # Type of FU issued
system.switch_cpus1.iq.FU_type_0::SimdAddAcc            0      0.00%     63.65% # Type of FU issued
system.switch_cpus1.iq.FU_type_0::SimdAlu            0      0.00%     63.65% # Type of FU issued
system.switch_cpus1.iq.FU_type_0::SimdCmp            0      0.00%     63.65% # Type of FU issued
system.switch_cpus1.iq.FU_type_0::SimdCvt            0      0.00%     63.65% # Type of FU issued
[...]
system.cpu7.icache.ReadReq_avg_miss_latency::total 1651847.739130                       # average ReadReq miss latency
system.cpu7.icache.demand_avg_miss_latency::switch_cpus7.inst 1651847.739130                       # average overall miss latency
system.cpu7.icache.demand_avg_miss_latency::total 1651847.739130                       # average overall miss latency
system.cpu7.icache.overall_avg_miss_latency::switch_cpus7.inst 1651847.739130                       # average overall miss latency
system.cpu7.icache.overall_avg_miss_latency::total 1651847.739130                       # average overall miss latency
system.cpu7.icache.blocked_cycles::no_mshrs       654202                       # number of cycles access was blocked
system.cpu7.icache.blocked_cycles::no_targets            0                       # number of cycles access was blocked
system.cpu7.icache.blocked::no_mshrs                2                       # number of cycles access was blocked
system.cpu7.icache.blocked::no_targets              0                       # number of cycles access was blocked
system.cpu7.icache.avg_blocked_cycles::no_mshrs       327101                       # average number of cycles each access was blocked
system.cpu7.icache.avg_blocked_cycles::no_targets          nan                       # average number of cycles each access was blocked
system.cpu7.icache.fast_writes                      0                       # number of fast writes performed
system.cpu7.icache.cache_copies                     0                       # number of cache copies performed
system.cpu7.icache.ReadReq_mshr_hits::switch_cpus7.inst           11                       # number of ReadReq MSHR hits
system.cpu7.icache.ReadReq_mshr_hits::total           11                       # number of ReadReq MSHR hits
system.cpu7.icache.demand_mshr_hits::switch_cpus7.inst           11                       # number of demand (read+write) MSHR hits
system.cpu7.icache.demand_mshr_hits::total           11                       # number of demand (read+write) MSHR hits
system.cpu7.icache.overall_mshr_hits::switch_cpus7.inst           11                       # number of overall MSHR hits
system.cpu7.icache.overall_mshr_hits::total           11                       # number of overall MSHR hits
system.cpu7.icache.ReadReq_mshr_misses::switch_cpus7.inst           35                       # number of ReadReq MSHR misses
system.cpu7.icache.ReadReq_mshr_misses::total           35                       # number of ReadReq MSHR misses
system.cpu7.icache.demand_mshr_misses::switch_cpus7.inst           35                       # number of demand (read+write) MSHR misses
system.cpu7.icache.demand_mshr_misses::total           35                       # number of demand (read+write) MSHR misses
system.cpu7.icache.overall_mshr_misses::switch_cpus7.inst           35                       # number of overall MSHR misses
system.cpu7.icache.overall_mshr_misses::total           35                       # number of overall MSHR misses
system.cpu7.icache.ReadReq_mshr_miss_latency::switch_cpus7.inst     50085902                       # number of ReadReq MSHR miss cycles
system.cpu7.icache.ReadReq_mshr_miss_latency::total     50085902                       # number of ReadReq MSHR miss cycles
system.cpu7.icache.demand_mshr_miss_latency::switch_cpus7.inst     50085902                       # number of demand (read+write) MSHR miss cycles
system.cpu7.icache.demand_mshr_miss_latency::total     50085902                       # number of demand (read+write) MSHR miss cycles
system.cpu7.icache.overall_mshr_miss_latency::switch_cpus7.inst     50085902                       # number of overall MSHR miss cycles
system.cpu7.icache.overall_mshr_miss_latency::total     50085902                       # number of overall MSHR miss cycles
system.cpu7.icache.ReadReq_mshr_miss_rate::switch_cpus7.inst     0.000027                       # mshr miss rate for ReadReq accesses
system.cpu7.icache.ReadReq_mshr_miss_rate::total     0.000027                       # mshr miss rate for ReadReq accesses
system.cpu7.icache.demand_mshr_miss_rate::switch_cpus7.inst     0.000027                       # mshr miss rate for demand accesses
system.cpu7.icache.demand_mshr_miss_rate::total     0.000027                       # mshr miss rate for demand accesses
system.cpu7.icache.overall_mshr_miss_rate::switch_cpus7.inst     0.000027                       # mshr miss rate for overall accesses
system.cpu7.icache.overall_mshr_miss_rate::total     0.000027                       # mshr miss rate for overall accesses
system.cpu7.icache.ReadReq_avg_mshr_miss_latency::switch_cpus7.inst 1431025.771429                       # average ReadReq mshr miss latency
system.cpu7.icache.ReadReq_avg_mshr_miss_latency::total 1431025.771429                       # average ReadReq mshr miss latency
system.cpu7.icache.demand_avg_mshr_miss_latency::switch_cpus7.inst 1431025.771429                       # average overall mshr miss latency
system.cpu7.icache.demand_avg_mshr_miss_latency::total 1431025.771429                       # average overall mshr miss latency
system.cpu7.icache.overall_avg_mshr_miss_latency::switch_cpus7.inst 1431025.771429                       # average overall mshr miss latency
system.cpu7.icache.overall_avg_mshr_miss_latency::total 1431025.771429                       # average overall mshr miss latency
system.cpu7.icache.no_allocate_misses               0                       # Number of misses that were no-allocate
system.cpu7.dcache.replacements                  3874                       # number of replacements
system.cpu7.dcache.tagsinuse                      256                       # Cycle average of tags in use
system.cpu7.dcache.total_refs               148813038                       # Total number of references to valid blocks.
system.cpu7.dcache.sampled_refs                  4130                       # Sample count of references to valid blocks.
system.cpu7.dcache.avg_refs              36032.212591                       # Average number of references to valid blocks.
system.cpu7.dcache.warmup_cycle                     0                       # Cycle when the warmup percentage was hit.
system.cpu7.dcache.occ_blocks::switch_cpus7.data   220.229013                       # Average occupied blocks per requestor
system.cpu7.dcache.occ_blocks::cpu7.data    35.770987                       # Average occupied blocks per requestor
system.cpu7.dcache.occ_percent::switch_cpus7.data     0.860270                       # Average percentage of cache occupancy
system.cpu7.dcache.occ_percent::cpu7.data     0.139730                       # Average percentage of cache occupancy
system.cpu7.dcache.occ_percent::total               1                       # Average percentage of cache occupancy
system.cpu7.dcache.ReadReq_hits::switch_cpus7.data      1017507                       # number of ReadReq hits
system.cpu7.dcache.ReadReq_hits::total        1017507                       # number of ReadReq hits
system.cpu7.dcache.WriteReq_hits::switch_cpus7.data       754780                       # number of WriteReq hits
system.cpu7.dcache.WriteReq_hits::total        754780                       # number of WriteReq hits
system.cpu7.dcache.LoadLockedReq_hits::switch_cpus7.data         1956                       # number of LoadLockedReq hits
system.cpu7.dcache.LoadLockedReq_hits::total         1956                       # number of LoadLockedReq hits
system.cpu7.dcache.StoreCondReq_hits::switch_cpus7.data         1837                       # number of StoreCondReq hits
system.cpu7.dcache.StoreCondReq_hits::total         1837                       # number of StoreCondReq hits
system.cpu7.dcache.demand_hits::switch_cpus7.data      1772287                       # number of demand (read+write) hits
system.cpu7.dcache.demand_hits::total         1772287                       # number of demand (read+write) hits
system.cpu7.dcache.overall_hits::switch_cpus7.data      1772287                       # number of overall hits
system.cpu7.dcache.overall_hits::total        1772287                       # number of overall hits
system.cpu7.dcache.ReadReq_misses::switch_cpus7.data         9893                       # number of ReadReq misses
system.cpu7.dcache.ReadReq_misses::total         9893                       # number of ReadReq misses
system.cpu7.dcache.WriteReq_misses::switch_cpus7.data           75                       # number of WriteReq misses
system.cpu7.dcache.WriteReq_misses::total           75                       # number of WriteReq misses
system.cpu7.dcache.demand_misses::switch_cpus7.data         9968                       # number of demand (read+write) misses
system.cpu7.dcache.demand_misses::total          9968                       # number of demand (read+write) misses
system.cpu7.dcache.overall_misses::switch_cpus7.data         9968                       # number of overall misses
system.cpu7.dcache.overall_misses::total         9968                       # number of overall misses
system.cpu7.dcache.ReadReq_miss_latency::switch_cpus7.data   1371533544                       # number of ReadReq miss cycles
system.cpu7.dcache.ReadReq_miss_latency::total   1371533544                       # number of ReadReq miss cycles
system.cpu7.dcache.WriteReq_miss_latency::switch_cpus7.data      6130813                       # number of WriteReq miss cycles
system.cpu7.dcache.WriteReq_miss_latency::total      6130813                       # number of WriteReq miss cycles
system.cpu7.dcache.demand_miss_latency::switch_cpus7.data   1377664357                       # number of demand (read+write) miss cycles
system.cpu7.dcache.demand_miss_latency::total   1377664357                       # number of demand (read+write) miss cycles
system.cpu7.dcache.overall_miss_latency::switch_cpus7.data   1377664357                       # number of overall miss cycles
system.cpu7.dcache.overall_miss_latency::total   1377664357                       # number of overall miss cycles
system.cpu7.dcache.ReadReq_accesses::switch_cpus7.data      1027400                       # number of ReadReq accesses(hits+misses)
system.cpu7.dcache.ReadReq_accesses::total      1027400                       # number of ReadReq accesses(hits+misses)
system.cpu7.dcache.WriteReq_accesses::switch_cpus7.data       754855                       # number of WriteReq accesses(hits+misses)
system.cpu7.dcache.WriteReq_accesses::total       754855                       # number of WriteReq accesses(hits+misses)
system.cpu7.dcache.LoadLockedReq_accesses::switch_cpus7.data         1956                       # number of LoadLockedReq accesses(hits+misses)
system.cpu7.dcache.LoadLockedReq_accesses::total         1956                       # number of LoadLockedReq accesses(hits+misses)
system.cpu7.dcache.StoreCondReq_accesses::switch_cpus7.data         1837                       # number of StoreCondReq accesses(hits+misses)
system.cpu7.dcache.StoreCondReq_accesses::total         1837                       # number of StoreCondReq accesses(hits+misses)
system.cpu7.dcache.demand_accesses::switch_cpus7.data      1782255                       # number of demand (read+write) accesses
system.cpu7.dcache.demand_accesses::total      1782255                       # number of demand (read+write) accesses
system.cpu7.dcache.overall_accesses::switch_cpus7.data      1782255                       # number of overall (read+write) accesses
system.cpu7.dcache.overall_accesses::total      1782255                       # number of overall (read+write) accesses
system.cpu7.dcache.ReadReq_miss_rate::switch_cpus7.data     0.009629                       # miss rate for ReadReq accesses
system.cpu7.dcache.ReadReq_miss_rate::total     0.009629                       # miss rate for ReadReq accesses
system.cpu7.dcache.WriteReq_miss_rate::switch_cpus7.data     0.000099                       # miss rate for WriteReq accesses
system.cpu7.dcache.WriteReq_miss_rate::total     0.000099                       # miss rate for WriteReq accesses
system.cpu7.dcache.demand_miss_rate::switch_cpus7.data     0.005593                       # miss rate for demand accesses
system.cpu7.dcache.demand_miss_rate::total     0.005593                       # miss rate for demand accesses
system.cpu7.dcache.overall_miss_rate::switch_cpus7.data     0.005593                       # miss rate for overall accesses
system.cpu7.dcache.overall_miss_rate::total     0.005593                       # miss rate for overall accesses
system.cpu7.dcache.ReadReq_avg_miss_latency::switch_cpus7.data 138636.767816                       # average ReadReq miss latency
system.cpu7.dcache.ReadReq_avg_miss_latency::total 138636.767816                       # average ReadReq miss latency
system.cpu7.dcache.WriteReq_avg_miss_latency::switch_cpus7.data 81744.173333                       # average WriteReq miss latency
system.cpu7.dcache.WriteReq_avg_miss_latency::total 81744.173333                       # average WriteReq miss latency
system.cpu7.dcache.demand_avg_miss_latency::switch_cpus7.data 138208.703551                       # average overall miss latency
system.cpu7.dcache.demand_avg_miss_latency::total 138208.703551                       # average overall miss latency
system.cpu7.dcache.overall_avg_miss_latency::switch_cpus7.data 138208.703551                       # average overall miss latency
system.cpu7.dcache.overall_avg_miss_latency::total 138208.703551                       # average overall miss latency
system.cpu7.dcache.blocked_cycles::no_mshrs            0                       # number of cycles access was blocked
system.cpu7.dcache.blocked_cycles::no_targets            0                       # number of cycles access was blocked
system.cpu7.dcache.blocked::no_mshrs                0                       # number of cycles access was blocked
system.cpu7.dcache.blocked::no_targets              0                       # number of cycles access was blocked
system.cpu7.dcache.avg_blocked_cycles::no_mshrs          nan                       # average number of cycles each access was blocked
system.cpu7.dcache.avg_blocked_cycles::no_targets          nan                       # average number of cycles each access was blocked
system.cpu7.dcache.fast_writes                      0                       # number of fast writes performed
system.cpu7.dcache.cache_copies                     0                       # number of cache copies performed
system.cpu7.dcache.writebacks::writebacks         1028                       # number of writebacks
system.cpu7.dcache.writebacks::total             1028                       # number of writebacks
system.cpu7.dcache.ReadReq_mshr_hits::switch_cpus7.data         6035                       # number of ReadReq MSHR hits
system.cpu7.dcache.ReadReq_mshr_hits::total         6035                       # number of ReadReq MSHR hits
system.cpu7.dcache.WriteReq_mshr_hits::switch_cpus7.data           59                       # number of WriteReq MSHR hits
system.cpu7.dcache.WriteReq_mshr_hits::total           59                       # number of WriteReq MSHR hits
system.cpu7.dcache.demand_mshr_hits::switch_cpus7.data         6094                       # number of demand (read+write) MSHR hits
system.cpu7.dcache.demand_mshr_hits::total         6094                       # number of demand (read+write) MSHR hits
system.cpu7.dcache.overall_mshr_hits::switch_cpus7.data         6094                       # number of overall MSHR hits
system.cpu7.dcache.overall_mshr_hits::total         6094                       # number of overall MSHR hits
system.cpu7.dcache.ReadReq_mshr_misses::switch_cpus7.data         3858                       # number of ReadReq MSHR misses
system.cpu7.dcache.ReadReq_mshr_misses::total         3858                       # number of ReadReq MSHR misses
system.cpu7.dcache.WriteReq_mshr_misses::switch_cpus7.data           16                       # number of WriteReq MSHR misses
system.cpu7.dcache.WriteReq_mshr_misses::total           16                       # number of WriteReq MSHR misses
system.cpu7.dcache.demand_mshr_misses::switch_cpus7.data         3874                       # number of demand (read+write) MSHR misses
system.cpu7.dcache.demand_mshr_misses::total         3874                       # number of demand (read+write) MSHR misses
system.cpu7.dcache.overall_mshr_misses::switch_cpus7.data         3874                       # number of overall MSHR misses
system.cpu7.dcache.overall_mshr_misses::total         3874                       # number of overall MSHR misses
system.cpu7.dcache.ReadReq_mshr_miss_latency::switch_cpus7.data    527923285                       # number of ReadReq MSHR miss cycles
system.cpu7.dcache.ReadReq_mshr_miss_latency::total    527923285                       # number of ReadReq MSHR miss cycles
system.cpu7.dcache.WriteReq_mshr_miss_latency::switch_cpus7.data      1113758                       # number of WriteReq MSHR miss cycles
system.cpu7.dcache.WriteReq_mshr_miss_latency::total      1113758                       # number of WriteReq MSHR miss cycles
system.cpu7.dcache.demand_mshr_miss_latency::switch_cpus7.data    529037043                       # number of demand (read+write) MSHR miss cycles
system.cpu7.dcache.demand_mshr_miss_latency::total    529037043                       # number of demand (read+write) MSHR miss cycles
system.cpu7.dcache.overall_mshr_miss_latency::switch_cpus7.data    529037043                       # number of overall MSHR miss cycles
system.cpu7.dcache.overall_mshr_miss_latency::total    529037043                       # number of overall MSHR miss cycles
system.cpu7.dcache.ReadReq_mshr_miss_rate::switch_cpus7.data     0.003755                       # mshr miss rate for ReadReq accesses
system.cpu7.dcache.ReadReq_mshr_miss_rate::total     0.003755                       # mshr miss rate for ReadReq accesses
system.cpu7.dcache.WriteReq_mshr_miss_rate::switch_cpus7.data     0.000021                       # mshr miss rate for WriteReq accesses
system.cpu7.dcache.WriteReq_mshr_miss_rate::total     0.000021                       # mshr miss rate for WriteReq accesses
system.cpu7.dcache.demand_mshr_miss_rate::switch_cpus7.data     0.002174                       # mshr miss rate for demand accesses
system.cpu7.dcache.demand_mshr_miss_rate::total     0.002174                       # mshr miss rate for demand accesses
system.cpu7.dcache.overall_mshr_miss_rate::switch_cpus7.data     0.002174                       # mshr miss rate for overall accesses
system.cpu7.dcache.overall_mshr_miss_rate::total     0.002174                       # mshr miss rate for overall accesses
system.cpu7.dcache.ReadReq_avg_mshr_miss_latency::switch_cpus7.data 136838.591239                       # average ReadReq mshr miss latency
system.cpu7.dcache.ReadReq_avg_mshr_miss_latency::total 136838.591239                       # average ReadReq mshr miss latency
system.cpu7.dcache.WriteReq_avg_mshr_miss_latency::switch_cpus7.data 69609.875000                       # average WriteReq mshr miss latency
system.cpu7.dcache.WriteReq_avg_mshr_miss_latency::total 69609.875000                       # average WriteReq mshr miss latency
system.cpu7.dcache.demand_avg_mshr_miss_latency::switch_cpus7.data 136560.930046                       # average overall mshr miss latency
system.cpu7.dcache.demand_avg_mshr_miss_latency::total 136560.930046                       # average overall mshr miss latency
system.cpu7.dcache.overall_avg_mshr_miss_latency::switch_cpus7.data 136560.930046                       # average overall mshr miss latency
system.cpu7.dcache.overall_avg_mshr_miss_latency::total 136560.930046                       # average overall mshr miss latency
system.cpu7.dcache.no_allocate_misses               0                       # Number of misses that were no-allocate

---------- End Simulation Statistics   ----------
