
---------- Begin Simulation Statistics ----------
sim_seconds                                  0.112435                       # Number of seconds simulated
sim_ticks                                112435392246                       # Number of ticks simulated
final_tick                               642073109556                       # Number of ticks from beginning of simulation (restored from checkpoints and never reset)
sim_freq                                 1000000000000                       # Frequency of simulated ticks
host_inst_rate                                 148282                       # Simulator instruction rate (inst/s)
host_op_rate                                   187488                       # Simulator op (including micro ops) rate (op/s)
host_tick_rate                                7539727                       # Simulator tick rate (ticks/s)
host_mem_usage                               16898676                       # Number of bytes of host memory used
host_seconds                                 14912.40                       # Real time elapsed on the host
sim_insts                                  2211235802                       # Number of instructions simulated
sim_ops                                    2795899394                       # Number of ops (including micro ops) simulated
system.physmem.bytes_read::switch_cpus0.inst         1408                       # Number of bytes read from this memory
system.physmem.bytes_read::switch_cpus0.data     12240512                       # Number of bytes read from this memory
system.physmem.bytes_read::switch_cpus1.inst         1792                       # Number of bytes read from this memory
system.physmem.bytes_read::switch_cpus1.data      5322112                       # Number of bytes read from this memory
system.physmem.bytes_read::total             17565824                       # Number of bytes read from this memory
system.physmem.bytes_inst_read::switch_cpus0.inst         1408                       # Number of instructions bytes read from this memory
system.physmem.bytes_inst_read::switch_cpus1.inst         1792                       # Number of instructions bytes read from this memory
system.physmem.bytes_inst_read::total            3200                       # Number of instructions bytes read from this memory
system.physmem.bytes_written::writebacks      2013696                       # Number of bytes written to this memory
system.physmem.bytes_written::total           2013696                       # Number of bytes written to this memory
system.physmem.num_reads::switch_cpus0.inst           11                       # Number of read requests responded to by this memory
system.physmem.num_reads::switch_cpus0.data        95629                       # Number of read requests responded to by this memory
system.physmem.num_reads::switch_cpus1.inst           14                       # Number of read requests responded to by this memory
system.physmem.num_reads::switch_cpus1.data        41579                       # Number of read requests responded to by this memory
system.physmem.num_reads::total                137233                       # Number of read requests responded to by this memory
system.physmem.num_writes::writebacks           15732                       # Number of write requests responded to by this memory
system.physmem.num_writes::functional               0                       # Number of write requests responded to by this memory
system.physmem.num_writes::interrupt                0                       # Number of write requests responded to by this memory
system.physmem.num_writes::switch_cpus0.dtb.walker            0                       # Number of write requests responded to by this memory
system.physmem.num_writes::switch_cpus0.itb.walker            0                       # Number of write requests responded to by this memory
system.physmem.num_writes::switch_cpus0.inst            0                       # Number of write requests responded to by this memory
system.physmem.num_writes::switch_cpus0.data            0                       # Number of write requests responded to by this memory
system.physmem.num_writes::switch_cpus1.dtb.walker            0                       # Number of write requests responded to by this memory
system.physmem.num_writes::switch_cpus1.itb.walker            0                       # Number of write requests responded to by this memory
system.physmem.num_writes::switch_cpus1.inst            0                       # Number of write requests responded to by this memory
system.physmem.num_writes::switch_cpus1.data            0                       # Number of write requests responded to by this memory
system.physmem.num_writes::cpu0.dtb.walker            0                       # Number of write requests responded to by this memory
system.physmem.num_writes::cpu0.itb.walker            0                       # Number of write requests responded to by this memory
system.physmem.num_writes::cpu0.inst                0                       # Number of write requests responded to by this memory
system.physmem.num_writes::cpu0.data                0                       # Number of write requests responded to by this memory
system.physmem.num_writes::cpu1.dtb.walker            0                       # Number of write requests responded to by this memory
system.physmem.num_writes::cpu1.itb.walker            0                       # Number of write requests responded to by this memory
system.physmem.num_writes::cpu1.inst                0                       # Number of write requests responded to by this memory
system.physmem.num_writes::cpu1.data                0                       # Number of write requests responded to by this memory
system.physmem.num_writes::total                15732                       # Number of write requests responded to by this memory
system.physmem.bw_read::switch_cpus0.inst        12523                       # Total read bandwidth from this memory (bytes/s)
system.physmem.bw_read::switch_cpus0.data    108867073                       # Total read bandwidth from this memory (bytes/s)
system.physmem.bw_read::switch_cpus1.inst        15938                       # Total read bandwidth from this memory (bytes/s)
system.physmem.bw_read::switch_cpus1.data     47334846                       # Total read bandwidth from this memory (bytes/s)
system.physmem.bw_read::total               156230380                       # Total read bandwidth from this memory (bytes/s)
system.physmem.bw_inst_read::switch_cpus0.inst        12523                       # Instruction read bandwidth from this memory (bytes/s)
system.physmem.bw_inst_read::switch_cpus1.inst        15938                       # Instruction read bandwidth from this memory (bytes/s)
system.physmem.bw_inst_read::total              28461                       # Instruction read bandwidth from this memory (bytes/s)
system.physmem.bw_write::writebacks          17909805                       # Write bandwidth from this memory (bytes/s)
system.physmem.bw_write::total               17909805                       # Write bandwidth from this memory (bytes/s)
system.physmem.bw_total::writebacks          17909805                       # Total bandwidth to/from this memory (bytes/s)
system.physmem.bw_total::switch_cpus0.inst        12523                       # Total bandwidth to/from this memory (bytes/s)
system.physmem.bw_total::switch_cpus0.data    108867073                       # Total bandwidth to/from this memory (bytes/s)
system.physmem.bw_total::switch_cpus1.inst        15938                       # Total bandwidth to/from this memory (bytes/s)
system.physmem.bw_total::switch_cpus1.data     47334846                       # Total bandwidth to/from this memory (bytes/s)
system.physmem.bw_total::total              174140185                       # Total bandwidth to/from this memory (bytes/s)
system.switch_cpus0.dtb.inst_hits                   0                       # ITB inst hits
system.switch_cpus0.dtb.inst_misses                 0                       # ITB inst misses
system.switch_cpus0.dtb.read_hits                   0                       # DTB read hits
system.switch_cpus0.dtb.read_misses                 0                       # DTB read misses
system.switch_cpus0.dtb.write_hits                  0                       # DTB write hits
system.switch_cpus0.dtb.write_misses                0                       # DTB write misses
system.switch_cpus0.dtb.flush_tlb                   0                       # Number of times complete TLB was flushed
system.switch_cpus0.dtb.flush_tlb_mva               0                       # Number of times TLB was flushed by MVA
system.switch_cpus0.dtb.flush_tlb_mva_asid            0                       # Number of times TLB was flushed by MVA & ASID
system.switch_cpus0.dtb.flush_tlb_asid              0                       # Number of times TLB was flushed by ASID
system.switch_cpus0.dtb.flush_entries               0                       # Number of entries that have been flushed from TLB
system.switch_cpus0.dtb.align_faults                0                       # Number of TLB faults due to alignment restrictions
system.switch_cpus0.dtb.prefetch_faults             0                       # Number of TLB faults due to prefetch
system.switch_cpus0.dtb.domain_faults               0                       # Number of TLB faults due to domain restrictions
system.switch_cpus0.dtb.perms_faults                0                       # Number of TLB faults due to permissions restrictions
system.switch_cpus0.dtb.read_accesses               0                       # DTB read accesses
system.switch_cpus0.dtb.write_accesses              0                       # DTB write accesses
system.switch_cpus0.dtb.inst_accesses               0                       # ITB inst accesses
system.switch_cpus0.dtb.hits                        0                       # DTB hits
system.switch_cpus0.dtb.misses                      0                       # DTB misses
system.switch_cpus0.dtb.accesses                    0                       # DTB accesses
system.switch_cpus0.itb.inst_hits                   0                       # ITB inst hits
system.switch_cpus0.itb.inst_misses                 0                       # ITB inst misses
system.switch_cpus0.itb.read_hits                   0                       # DTB read hits
system.switch_cpus0.itb.read_misses                 0                       # DTB read misses
system.switch_cpus0.itb.write_hits                  0                       # DTB write hits
system.switch_cpus0.itb.write_misses                0                       # DTB write misses
system.switch_cpus0.itb.flush_tlb                   0                       # Number of times complete TLB was flushed
system.switch_cpus0.itb.flush_tlb_mva               0                       # Number of times TLB was flushed by MVA
system.switch_cpus0.itb.flush_tlb_mva_asid            0                       # Number of times TLB was flushed by MVA & ASID
system.switch_cpus0.itb.flush_tlb_asid              0                       # Number of times TLB was flushed by ASID
system.switch_cpus0.itb.flush_entries               0                       # Number of entries that have been flushed from TLB
system.switch_cpus0.itb.align_faults                0                       # Number of TLB faults due to alignment restrictions
system.switch_cpus0.itb.prefetch_faults             0                       # Number of TLB faults due to prefetch
system.switch_cpus0.itb.domain_faults               0                       # Number of TLB faults due to domain restrictions
system.switch_cpus0.itb.perms_faults                0                       # Number of TLB faults due to permissions restrictions
system.switch_cpus0.itb.read_accesses               0                       # DTB read accesses
system.switch_cpus0.itb.write_accesses              0                       # DTB write accesses
system.switch_cpus0.itb.inst_accesses               0                       # ITB inst accesses
system.switch_cpus0.itb.hits                        0                       # DTB hits
system.switch_cpus0.itb.misses                      0                       # DTB misses
system.switch_cpus0.itb.accesses                    0                       # DTB accesses
system.cpu0.workload.num_syscalls                   0                       # Number of system calls
system.switch_cpus0.numCycles               269629239                       # number of cpu cycles simulated
system.switch_cpus0.numWorkItemsStarted             0                       # number of work items this cpu started
system.switch_cpus0.numWorkItemsCompleted            0                       # number of work items this cpu completed
system.switch_cpus0.BPredUnit.lookups        21370666                       # Number of BP lookups
system.switch_cpus0.BPredUnit.condPredicted     17405372                       # Number of conditional branches predicted
system.switch_cpus0.BPredUnit.condIncorrect      1905625                       # Number of conditional branches incorrect
system.switch_cpus0.BPredUnit.BTBLookups      8419017                       # Number of BTB lookups
system.switch_cpus0.BPredUnit.BTBHits         8096654                       # Number of BTB hits
system.switch_cpus0.BPredUnit.BTBCorrect            0                       # Number of correct BTB predictions (this stat may not work properly.
system.switch_cpus0.BPredUnit.usedRAS         2231248                       # Number of times the RAS was used to get a target.
system.switch_cpus0.BPredUnit.RASInCorrect        86294                       # Number of incorrect RAS predictions.
system.switch_cpus0.fetch.icacheStallCycles    192939368                       # Number of cycles fetch is stalled on an Icache miss
system.switch_cpus0.fetch.Insts             120238964                       # Number of instructions fetch has processed
system.switch_cpus0.fetch.Branches           21370666                       # Number of branches that fetch encountered
system.switch_cpus0.fetch.predictedBranches     10327902                       # Number of branches that fetch has predicted taken
system.switch_cpus0.fetch.Cycles             25413009                       # Number of cycles fetch has run and was not squashing or blocked
system.switch_cpus0.fetch.SquashCycles        5669140                       # Number of cycles fetch has spent squashing
system.switch_cpus0.fetch.BlockedCycles      19116439                       # Number of cycles fetch has spent blocked
system.switch_cpus0.fetch.CacheLines         11799002                       # Number of cache lines fetched
system.switch_cpus0.fetch.IcacheSquashes      1902984                       # Number of outstanding Icache misses that were squashed
system.switch_cpus0.fetch.rateDist::samples    241204151                       # Number of instructions fetched each cycle (Total)
system.switch_cpus0.fetch.rateDist::mean     0.603046                       # Number of instructions fetched each cycle (Total)
system.switch_cpus0.fetch.rateDist::stdev     1.960097                       # Number of instructions fetched each cycle (Total)
system.switch_cpus0.fetch.rateDist::underflows            0      0.00%      0.00% # Number of instructions fetched each cycle (Total)
system.switch_cpus0.fetch.rateDist::0       215791142     89.46%     89.46% # Number of instructions fetched each cycle (Total)
system.switch_cpus0.fetch.rateDist::1         2723457      1.13%     90.59% # Number of instructions fetched each cycle (Total)
system.switch_cpus0.fetch.rateDist::2         2130739      0.88%     91.48% # Number of instructions fetched each cycle (Total)
system.switch_cpus0.fetch.rateDist::3         2293237      0.95%     92.43% # Number of instructions fetched each cycle (Total)
system.switch_cpus0.fetch.rateDist::4         1957191      0.81%     93.24% # Number of instructions fetched each cycle (Total)
system.switch_cpus0.fetch.rateDist::5         1089712      0.45%     93.69% # Number of instructions fetched each cycle (Total)
system.switch_cpus0.fetch.rateDist::6          746627      0.31%     94.00% # Number of instructions fetched each cycle (Total)
system.switch_cpus0.fetch.rateDist::7         1940950      0.80%     94.80% # Number of instructions fetched each cycle (Total)
system.switch_cpus0.fetch.rateDist::8        12531096      5.20%    100.00% # Number of instructions fetched each cycle (Total)
system.switch_cpus0.fetch.rateDist::overflows            0      0.00%    100.00% # Number of instructions fetched each cycle (Total)
system.switch_cpus0.fetch.rateDist::min_value            0                       # Number of instructions fetched each cycle (Total)
system.switch_cpus0.fetch.rateDist::max_value            8                       # Number of instructions fetched each cycle (Total)
system.switch_cpus0.fetch.rateDist::total    241204151                       # Number of instructions fetched each cycle (Total)
system.switch_cpus0.fetch.branchRate         0.079259                       # Number of branch fetches per cycle
system.switch_cpus0.fetch.rate               0.445942                       # Number of inst fetches per cycle
system.switch_cpus0.decode.IdleCycles       190669149                       # Number of cycles decode is idle
system.switch_cpus0.decode.BlockedCycles     21423940                       # Number of cycles decode is blocked
system.switch_cpus0.decode.RunCycles         25270198                       # Number of cycles decode is running
system.switch_cpus0.decode.UnblockCycles       112064                       # Number of cycles decode is unblocking
system.switch_cpus0.decode.SquashCycles       3728796                       # Number of cycles decode is squashing
system.switch_cpus0.decode.BranchResolved      3644148                       # Number of times decode resolved a branch
system.switch_cpus0.decode.BranchMispred         6539                       # Number of times decode detected a branch misprediction
system.switch_cpus0.decode.DecodedInsts     145190640                       # Number of instructions handled by decode
system.switch_cpus0.decode.SquashedInsts        51768                       # Number of squashed instructions handled by decode
system.switch_cpus0.rename.SquashCycles       3728796                       # Number of cycles rename is squashing
system.switch_cpus0.rename.IdleCycles       190929066                       # Number of cycles rename is idle
system.switch_cpus0.rename.BlockCycles       17908783                       # Number of cycles rename is blocking
system.switch_cpus0.rename.serializeStallCycles      2388829                       # count of cycles rename stalled for serializing inst
system.switch_cpus0.rename.RunCycles         25126123                       # Number of cycles rename is running
system.switch_cpus0.rename.UnblockCycles      1122542                       # Number of cycles rename is unblocking
system.switch_cpus0.rename.RenamedInsts     144970629                       # Number of instructions processed by rename
system.switch_cpus0.rename.ROBFullEvents         2840                       # Number of times rename has blocked due to ROB full
system.switch_cpus0.rename.IQFullEvents        428035                       # Number of times rename has blocked due to IQ full
system.switch_cpus0.rename.LSQFullEvents       560561                       # Number of times rename has blocked due to LSQ full
system.switch_cpus0.rename.FullRegisterEvents         9852                       # Number of times there has been no free registers
system.switch_cpus0.rename.RenamedOperands    202835938                       # Number of destination operands rename has renamed
system.switch_cpus0.rename.RenameLookups    675634566                       # Number of register rename lookups that rename has made
system.switch_cpus0.rename.int_rename_lookups    675634566                       # Number of integer rename lookups
system.switch_cpus0.rename.CommittedMaps    168450697                       # Number of HB maps that are committed
system.switch_cpus0.rename.UndoneMaps        34385232                       # Number of HB maps that are undone due to squashing
system.switch_cpus0.rename.serializingInsts        32658                       # count of serializing insts renamed
system.switch_cpus0.rename.tempSerializingInsts        16578                       # count of temporary serializing insts renamed
system.switch_cpus0.rename.skidInsts          3606985                       # count of insts added to the skid buffer
system.switch_cpus0.memDep0.insertedLoads     13956403                       # Number of loads inserted to the mem dependence unit.
system.switch_cpus0.memDep0.insertedStores      7842773                       # Number of stores inserted to the mem dependence unit.
system.switch_cpus0.memDep0.conflictingLoads       292304                       # Number of conflicting loads.
system.switch_cpus0.memDep0.conflictingStores      1743935                       # Number of conflicting stores.
system.switch_cpus0.iq.iqInstsAdded         144455215                       # Number of instructions added to the IQ (excludes non-spec)
system.switch_cpus0.iq.iqNonSpecInstsAdded        32657                       # Number of non-speculative instructions added to the IQ
system.switch_cpus0.iq.iqInstsIssued        137153536                       # Number of instructions issued
system.switch_cpus0.iq.iqSquashedInstsIssued        76233                       # Number of squashed instructions issued
system.switch_cpus0.iq.iqSquashedInstsExamined     20002905                       # Number of squashed instructions iterated over during squash; mainly for profiling
system.switch_cpus0.iq.iqSquashedOperandsExamined     41272082                       # Number of squashed operands that are examined and possibly removed from graph
system.switch_cpus0.iq.iqSquashedNonSpecRemoved          497                       # Number of squashed non-spec instructions that were removed
system.switch_cpus0.iq.issued_per_cycle::samples    241204151                       # Number of insts issued each cycle
system.switch_cpus0.iq.issued_per_cycle::mean     0.568620                       # Number of insts issued each cycle
system.switch_cpus0.iq.issued_per_cycle::stdev     1.277092                       # Number of insts issued each cycle
system.switch_cpus0.iq.issued_per_cycle::underflows            0      0.00%      0.00% # Number of insts issued each cycle
system.switch_cpus0.iq.issued_per_cycle::0    183341648     76.01%     76.01% # Number of insts issued each cycle
system.switch_cpus0.iq.issued_per_cycle::1     24397812     10.12%     86.13% # Number of insts issued each cycle
system.switch_cpus0.iq.issued_per_cycle::2     12308274      5.10%     91.23% # Number of insts issued each cycle
system.switch_cpus0.iq.issued_per_cycle::3      7978714      3.31%     94.54% # Number of insts issued each cycle
system.switch_cpus0.iq.issued_per_cycle::4      6581741      2.73%     97.27% # Number of insts issued each cycle
system.switch_cpus0.iq.issued_per_cycle::5      2585443      1.07%     98.34% # Number of insts issued each cycle
system.switch_cpus0.iq.issued_per_cycle::6      3178197      1.32%     99.65% # Number of insts issued each cycle
system.switch_cpus0.iq.issued_per_cycle::7       778903      0.32%     99.98% # Number of insts issued each cycle
system.switch_cpus0.iq.issued_per_cycle::8        53419      0.02%    100.00% # Number of insts issued each cycle
system.switch_cpus0.iq.issued_per_cycle::overflows            0      0.00%    100.00% # Number of insts issued each cycle
system.switch_cpus0.iq.issued_per_cycle::min_value            0                       # Number of insts issued each cycle
system.switch_cpus0.iq.issued_per_cycle::max_value            8                       # Number of insts issued each cycle
system.switch_cpus0.iq.issued_per_cycle::total    241204151                       # Number of insts issued each cycle
system.switch_cpus0.iq.fu_full::No_OpClass            0      0.00%      0.00% # attempts to use FU when none available
system.switch_cpus0.iq.fu_full::IntAlu         962280     75.29%     75.29% # attempts to use FU when none available
system.switch_cpus0.iq.fu_full::IntMult             0      0.00%     75.29% # attempts to use FU when none available
system.switch_cpus0.iq.fu_full::IntDiv              0      0.00%     75.29% # attempts to use FU when none available
system.switch_cpus0.iq.fu_full::FloatAdd            0      0.00%     75.29% # attempts to use FU when none available
system.switch_cpus0.iq.fu_full::FloatCmp            0      0.00%     75.29% # attempts to use FU when none available
system.switch_cpus0.iq.fu_full::FloatCvt            0      0.00%     75.29% # attempts to use FU when none available
system.switch_cpus0.iq.fu_full::FloatMult            0      0.00%     75.29% # attempts to use FU when none available
system.switch_cpus0.iq.fu_full::FloatDiv            0      0.00%     75.29% # attempts to use FU when none available
system.switch_cpus0.iq.fu_full::FloatSqrt            0      0.00%     75.29% # attempts to use FU when none available
system.switch_cpus0.iq.fu_full::SimdAdd             0      0.00%     75.29% # attempts to use FU when none available
system.switch_cpus0.iq.fu_full::SimdAddAcc            0      0.00%     75.29% # attempts to use FU when none available
system.switch_cpus0.iq.fu_full::SimdAlu             0      0.00%     75.29% # attempts to use FU when none available
system.switch_cpus0.iq.fu_full::SimdCmp             0      0.00%     75.29% # attempts to use FU when none available
system.switch_cpus0.iq.fu_full::SimdCvt             0      0.00%     75.29% # attempts to use FU when none available
system.switch_cpus0.iq.fu_full::SimdMisc            0      0.00%     75.29% # attempts to use FU when none available
system.switch_cpus0.iq.fu_full::SimdMult            0      0.00%     75.29% # attempts to use FU when none available
system.switch_cpus0.iq.fu_full::SimdMultAcc            0      0.00%     75.29% # attempts to use FU when none available
system.switch_cpus0.iq.fu_full::SimdShift            0      0.00%     75.29% # attempts to use FU when none available
system.switch_cpus0.iq.fu_full::SimdShiftAcc            0      0.00%     75.29% # attempts to use FU when none available
system.switch_cpus0.iq.fu_full::SimdSqrt            0      0.00%     75.29% # attempts to use FU when none available
system.switch_cpus0.iq.fu_full::SimdFloatAdd            0      0.00%     75.29% # attempts to use FU when none available
system.switch_cpus0.iq.fu_full::SimdFloatAlu            0      0.00%     75.29% # attempts to use FU when none available
system.switch_cpus0.iq.fu_full::SimdFloatCmp            0      0.00%     75.29% # attempts to use FU when none available
system.switch_cpus0.iq.fu_full::SimdFloatCvt            0      0.00%     75.29% # attempts to use FU when none available
system.switch_cpus0.iq.fu_full::SimdFloatDiv            0      0.00%     75.29% # attempts to use FU when none available
system.switch_cpus0.iq.fu_full::SimdFloatMisc            0      0.00%     75.29% # attempts to use FU when none available
system.switch_cpus0.iq.fu_full::SimdFloatMult            0      0.00%     75.29% # attempts to use FU when none available
system.switch_cpus0.iq.fu_full::SimdFloatMultAcc            0      0.00%     75.29% # attempts to use FU when none available
system.switch_cpus0.iq.fu_full::SimdFloatSqrt            0      0.00%     75.29% # attempts to use FU when none available
system.switch_cpus0.iq.fu_full::MemRead        146234     11.44%     86.73% # attempts to use FU when none available
system.switch_cpus0.iq.fu_full::MemWrite       169559     13.27%    100.00% # attempts to use FU when none available
system.switch_cpus0.iq.fu_full::IprAccess            0      0.00%    100.00% # attempts to use FU when none available
system.switch_cpus0.iq.fu_full::InstPrefetch            0      0.00%    100.00% # attempts to use FU when none available
system.switch_cpus0.iq.FU_type_0::No_OpClass            0      0.00%      0.00% # Type of FU issued
system.switch_cpus0.iq.FU_type_0::IntAlu    113719416     82.91%     82.91% # Type of FU issued
system.switch_cpus0.iq.FU_type_0::IntMult      2006869      1.46%     84.38% # Type of FU issued
system.switch_cpus0.iq.FU_type_0::IntDiv            0      0.00%     84.38% # Type of FU issued
system.switch_cpus0.iq.FU_type_0::FloatAdd            0      0.00%     84.38% # Type of FU issued
system.switch_cpus0.iq.FU_type_0::FloatCmp            0      0.00%     84.38% # Type of FU issued
system.switch_cpus0.iq.FU_type_0::FloatCvt            0      0.00%     84.38% # Type of FU issued
system.switch_cpus0.iq.FU_type_0::FloatMult            0      0.00%     84.38% # Type of FU issued
system.switch_cpus0.iq.FU_type_0::FloatDiv            0      0.00%     84.38% # Type of FU issued
system.switch_cpus0.iq.FU_type_0::FloatSqrt            0      0.00%     84.38% # Type of FU issued
system.switch_cpus0.iq.FU_type_0::SimdAdd            0      0.00%     84.38% # Type of FU issued
system.switch_cpus0.iq.FU_type_0::SimdAddAcc            0      0.00%     84.38% # Type of FU issued
system.switch_cpus0.iq.FU_type_0::SimdAlu            0      0.00%     84.38% # Type of FU issued
system.switch_cpus0.iq.FU_type_0::SimdCmp            0      0.00%     84.38% # Type of FU issued
system.switch_cpus0.iq.FU_type_0::SimdCvt            0      0.00%     84.38% # Type of FU issued
system.switch_cpus0.iq.FU_type_0::SimdMisc            0      0.00%     84.38% # Type of FU issued
system.switch_cpus0.iq.FU_type_0::SimdMult            0      0.00%     84.38% # Type of FU issued
system.switch_cpus0.iq.FU_type_0::SimdMultAcc            0      0.00%     84.38% # Type of FU issued
system.switch_cpus0.iq.FU_type_0::SimdShift            0      0.00%     84.38% # Type of FU issued
system.switch_cpus0.iq.FU_type_0::SimdShiftAcc            0      0.00%     84.38% # Type of FU issued
system.switch_cpus0.iq.FU_type_0::SimdSqrt            0      0.00%     84.38% # Type of FU issued
system.switch_cpus0.iq.FU_type_0::SimdFloatAdd            0      0.00%     84.38% # Type of FU issued
system.switch_cpus0.iq.FU_type_0::SimdFloatAlu            0      0.00%     84.38% # Type of FU issued
system.switch_cpus0.iq.FU_type_0::SimdFloatCmp            0      0.00%     84.38% # Type of FU issued
system.switch_cpus0.iq.FU_type_0::SimdFloatCvt            0      0.00%     84.38% # Type of FU issued
system.switch_cpus0.iq.FU_type_0::SimdFloatDiv            0      0.00%     84.38% # Type of FU issued
system.switch_cpus0.iq.FU_type_0::SimdFloatMisc        16080      0.01%     84.39% # Type of FU issued
system.switch_cpus0.iq.FU_type_0::SimdFloatMult            0      0.00%     84.39% # Type of FU issued
system.switch_cpus0.iq.FU_type_0::SimdFloatMultAcc            0      0.00%     84.39% # Type of FU issued
system.switch_cpus0.iq.FU_type_0::SimdFloatSqrt            0      0.00%     84.39% # Type of FU issued
system.switch_cpus0.iq.FU_type_0::MemRead     13608285      9.92%     94.31% # Type of FU issued
system.switch_cpus0.iq.FU_type_0::MemWrite      7802886      5.69%    100.00% # Type of FU issued
system.switch_cpus0.iq.FU_type_0::IprAccess            0      0.00%    100.00% # Type of FU issued
system.switch_cpus0.iq.FU_type_0::InstPrefetch            0      0.00%    100.00% # Type of FU issued
system.switch_cpus0.iq.FU_type_0::total     137153536                       # Type of FU issued
system.switch_cpus0.iq.rate                  0.508675                       # Inst issue rate
system.switch_cpus0.iq.fu_busy_cnt            1278073                       # FU busy when requested
system.switch_cpus0.iq.fu_busy_rate          0.009319                       # FU busy rate (busy events/executed inst)
system.switch_cpus0.iq.int_inst_queue_reads    516865529                       # Number of integer instruction queue reads
system.switch_cpus0.iq.int_inst_queue_writes    164491511                       # Number of integer instruction queue writes
system.switch_cpus0.iq.int_inst_queue_wakeup_accesses    133351142                       # Number of integer instruction queue wakeup accesses
system.switch_cpus0.iq.fp_inst_queue_reads            0                       # Number of floating instruction queue reads
system.switch_cpus0.iq.fp_inst_queue_writes            0                       # Number of floating instruction queue writes
system.switch_cpus0.iq.fp_inst_queue_wakeup_accesses            0                       # Number of floating instruction queue wakeup accesses
system.switch_cpus0.iq.int_alu_accesses     138431609                       # Number of integer alu accesses
system.switch_cpus0.iq.fp_alu_accesses              0                       # Number of floating point alu accesses
system.switch_cpus0.iew.lsq.thread0.forwLoads       145422                       # Number of loads that had data forwarded from stores
system.switch_cpus0.iew.lsq.thread0.invAddrLoads            0                       # Number of loads ignored due to an invalid address
system.switch_cpus0.iew.lsq.thread0.squashedLoads      1804803                       # Number of loads squashed
system.switch_cpus0.iew.lsq.thread0.ignoredResponses           47                       # Number of memory responses ignored because the instruction is squashed
system.switch_cpus0.iew.lsq.thread0.memOrderViolation          734                       # Number of memory ordering violations
system.switch_cpus0.iew.lsq.thread0.squashedStores       133207                       # Number of stores squashed
system.switch_cpus0.iew.lsq.thread0.invAddrSwpfs            0                       # Number of software prefetches ignored due to an invalid address
system.switch_cpus0.iew.lsq.thread0.blockedLoads            0                       # Number of blocked loads due to partial load-store forwarding
system.switch_cpus0.iew.lsq.thread0.rescheduledLoads          554                       # Number of loads that were rescheduled
system.switch_cpus0.iew.lsq.thread0.cacheBlocked            0                       # Number of times an access to memory failed due to the cache being blocked
system.switch_cpus0.iew.iewIdleCycles               0                       # Number of cycles IEW is idle
system.switch_cpus0.iew.iewSquashCycles       3728796                       # Number of cycles IEW is squashing
system.switch_cpus0.iew.iewBlockCycles       17125358                       # Number of cycles IEW is blocking
system.switch_cpus0.iew.iewUnblockCycles       322307                       # Number of cycles IEW is unblocking
system.switch_cpus0.iew.iewDispatchedInsts    144487872                       # Number of instructions dispatched to IQ
system.switch_cpus0.iew.iewDispSquashedInsts          451                       # Number of squashed instructions skipped by dispatch
system.switch_cpus0.iew.iewDispLoadInsts     13956403                       # Number of dispatched load instructions
system.switch_cpus0.iew.iewDispStoreInsts      7842773                       # Number of dispatched store instructions
system.switch_cpus0.iew.iewDispNonSpecInsts        16577                       # Number of dispatched non-speculative instructions
system.switch_cpus0.iew.iewIQFullEvents        251262                       # Number of times the IQ has become full, causing a stall
system.switch_cpus0.iew.iewLSQFullEvents        12534                       # Number of times the LSQ has become full, causing a stall
system.switch_cpus0.iew.memOrderViolationEvents          734                       # Number of memory order violations
system.switch_cpus0.iew.predictedTakenIncorrect      1133255                       # Number of branches that were predicted taken incorrectly
system.switch_cpus0.iew.predictedNotTakenIncorrect      1064548                       # Number of branches that were predicted not taken incorrectly
system.switch_cpus0.iew.branchMispredicts      2197803                       # Number of branch mispredicts detected at execute
system.switch_cpus0.iew.iewExecutedInsts    134572853                       # Number of executed instructions
system.switch_cpus0.iew.iewExecLoadInsts     13478539                       # Number of load instructions executed
system.switch_cpus0.iew.iewExecSquashedInsts      2580683                       # Number of squashed instructions skipped in execute
system.switch_cpus0.iew.exec_swp                    0                       # number of swp insts executed
system.switch_cpus0.iew.exec_nop                    0                       # number of nop insts executed
system.switch_cpus0.iew.exec_refs            21280716                       # number of memory reference insts executed
system.switch_cpus0.iew.exec_branches        19210448                       # Number of branches executed
system.switch_cpus0.iew.exec_stores           7802177                       # Number of stores executed
system.switch_cpus0.iew.exec_rate            0.499103                       # Inst execution rate
system.switch_cpus0.iew.wb_sent             133352964                       # cumulative count of insts sent to commit
system.switch_cpus0.iew.wb_count            133351142                       # cumulative count of insts written-back
system.switch_cpus0.iew.wb_producers         79198915                       # num instructions producing a value
system.switch_cpus0.iew.wb_consumers        213451893                       # num instructions consuming a value
system.switch_cpus0.iew.wb_penalized                0                       # number of instrctions required to write to 'other' IQ
system.switch_cpus0.iew.wb_rate              0.494572                       # insts written-back per cycle
system.switch_cpus0.iew.wb_fanout            0.371039                       # average fanout of values written-back
system.switch_cpus0.iew.wb_penalized_rate            0                       # fraction of instructions written-back that wrote to 'other' IQ
system.switch_cpus0.commit.commitCommittedInsts    100000001                       # The number of committed instructions
system.switch_cpus0.commit.commitCommittedOps    122466363                       # The number of committed instructions
system.switch_cpus0.commit.commitSquashedInsts     22033255                       # The number of squashed insts skipped by commit
system.switch_cpus0.commit.commitNonSpecStalls        32160                       # The number of times commit has been forced to stall to communicate backwards
system.switch_cpus0.commit.branchMispredicts      1926714                       # The number of times a branch was mispredicted
system.switch_cpus0.commit.committed_per_cycle::samples    237475355                       # Number of insts commited each cycle
system.switch_cpus0.commit.committed_per_cycle::mean     0.515701                       # Number of insts commited each cycle
system.switch_cpus0.commit.committed_per_cycle::stdev     1.367349                       # Number of insts commited each cycle
system.switch_cpus0.commit.committed_per_cycle::underflows            0      0.00%      0.00% # Number of insts commited each cycle
system.switch_cpus0.commit.committed_per_cycle::0    187750057     79.06%     79.06% # Number of insts commited each cycle
system.switch_cpus0.commit.committed_per_cycle::1     23293137      9.81%     88.87% # Number of insts commited each cycle
system.switch_cpus0.commit.committed_per_cycle::2     10800414      4.55%     93.42% # Number of insts commited each cycle
system.switch_cpus0.commit.committed_per_cycle::3      4816076      2.03%     95.45% # Number of insts commited each cycle
system.switch_cpus0.commit.committed_per_cycle::4      3650283      1.54%     96.98% # Number of insts commited each cycle
system.switch_cpus0.commit.committed_per_cycle::5      1541545      0.65%     97.63% # Number of insts commited each cycle
system.switch_cpus0.commit.committed_per_cycle::6      1536728      0.65%     98.28% # Number of insts commited each cycle
system.switch_cpus0.commit.committed_per_cycle::7      1101975      0.46%     98.74% # Number of insts commited each cycle
system.switch_cpus0.commit.committed_per_cycle::8      2985140      1.26%    100.00% # Number of insts commited each cycle
system.switch_cpus0.commit.committed_per_cycle::overflows            0      0.00%    100.00% # Number of insts commited each cycle
system.switch_cpus0.commit.committed_per_cycle::min_value            0                       # Number of insts commited each cycle
system.switch_cpus0.commit.committed_per_cycle::max_value            8                       # Number of insts commited each cycle
system.switch_cpus0.commit.committed_per_cycle::total    237475355                       # Number of insts commited each cycle
system.switch_cpus0.commit.committedInsts    100000001                       # Number of instructions committed
system.switch_cpus0.commit.committedOps     122466363                       # Number of ops (including micro ops) committed
system.switch_cpus0.commit.swp_count                0                       # Number of s/w prefetches committed
system.switch_cpus0.commit.refs              19861166                       # Number of memory references committed
system.switch_cpus0.commit.loads             12151600                       # Number of loads committed
system.switch_cpus0.commit.membars              16080                       # Number of memory barriers committed
system.switch_cpus0.commit.branches          17572811                       # Number of branches committed
system.switch_cpus0.commit.fp_insts                 0                       # Number of committed floating point instructions.
system.switch_cpus0.commit.int_insts        110207504                       # Number of committed integer instructions.
system.switch_cpus0.commit.function_calls      2420799                       # Number of function calls committed.
system.switch_cpus0.commit.bw_lim_events      2985140                       # number cycles where commit BW limit reached
system.switch_cpus0.commit.bw_limited               0                       # number of insts not committed due to BW limits
system.switch_cpus0.rob.rob_reads           378989833                       # The number of ROB reads
system.switch_cpus0.rob.rob_writes          292728107                       # The number of ROB writes
system.switch_cpus0.timesIdled                2850443                       # Number of times that the entire CPU went into an idle state and unscheduled itself
system.switch_cpus0.idleCycles               28425088                       # Total number of cycles that the CPU has spent unscheduled due to idling
system.switch_cpus0.committedInsts          100000001                       # Number of Instructions Simulated
system.switch_cpus0.committedOps            122466363                       # Number of Ops (including micro ops) Simulated
system.switch_cpus0.committedInsts_total    100000001                       # Number of Instructions Simulated
system.switch_cpus0.cpi                      2.696292                       # CPI: Cycles Per Instruction
system.switch_cpus0.cpi_total                2.696292                       # CPI: Total CPI of All Threads
system.switch_cpus0.ipc                      0.370880                       # IPC: Instructions Per Cycle
system.switch_cpus0.ipc_total                0.370880                       # IPC: Total IPC of All Threads
system.switch_cpus0.int_regfile_reads       608366914                       # number of integer regfile reads
system.switch_cpus0.int_regfile_writes      183744021                       # number of integer regfile writes
system.switch_cpus0.misc_regfile_reads      137844009                       # number of misc regfile reads
system.switch_cpus0.misc_regfile_writes         32160                       # number of misc regfile writes
system.switch_cpus1.dtb.inst_hits                   0                       # ITB inst hits
system.switch_cpus1.dtb.inst_misses                 0                       # ITB inst misses
system.switch_cpus1.dtb.read_hits                   0                       # DTB read hits
system.switch_cpus1.dtb.read_misses                 0                       # DTB read misses
system.switch_cpus1.dtb.write_hits                  0                       # DTB write hits
system.switch_cpus1.dtb.write_misses                0                       # DTB write misses
system.switch_cpus1.dtb.flush_tlb                   0                       # Number of times complete TLB was flushed
system.switch_cpus1.dtb.flush_tlb_mva               0                       # Number of times TLB was flushed by MVA
system.switch_cpus1.dtb.flush_tlb_mva_asid            0                       # Number of times TLB was flushed by MVA & ASID
system.switch_cpus1.dtb.flush_tlb_asid              0                       # Number of times TLB was flushed by ASID
system.switch_cpus1.dtb.flush_entries               0                       # Number of entries that have been flushed from TLB
system.switch_cpus1.dtb.align_faults                0                       # Number of TLB faults due to alignment restrictions
system.switch_cpus1.dtb.prefetch_faults             0                       # Number of TLB faults due to prefetch
system.switch_cpus1.dtb.domain_faults               0                       # Number of TLB faults due to domain restrictions
system.switch_cpus1.dtb.perms_faults                0                       # Number of TLB faults due to permissions restrictions
system.switch_cpus1.dtb.read_accesses               0                       # DTB read accesses
system.switch_cpus1.dtb.write_accesses              0                       # DTB write accesses
system.switch_cpus1.dtb.inst_accesses               0                       # ITB inst accesses
system.switch_cpus1.dtb.hits                        0                       # DTB hits
system.switch_cpus1.dtb.misses                      0                       # DTB misses
system.switch_cpus1.dtb.accesses                    0                       # DTB accesses
system.switch_cpus1.itb.inst_hits                   0                       # ITB inst hits
system.switch_cpus1.itb.inst_misses                 0                       # ITB inst misses
system.switch_cpus1.itb.read_hits                   0                       # DTB read hits
system.switch_cpus1.itb.read_misses                 0                       # DTB read misses
system.switch_cpus1.itb.write_hits                  0                       # DTB write hits
system.switch_cpus1.itb.write_misses                0                       # DTB write misses
system.switch_cpus1.itb.flush_tlb                   0                       # Number of times complete TLB was flushed
system.switch_cpus1.itb.flush_tlb_mva               0                       # Number of times TLB was flushed by MVA
system.switch_cpus1.itb.flush_tlb_mva_asid            0                       # Number of times TLB was flushed by MVA & ASID
system.switch_cpus1.itb.flush_tlb_asid              0                       # Number of times TLB was flushed by ASID
system.switch_cpus1.itb.flush_entries               0                       # Number of entries that have been flushed from TLB
system.switch_cpus1.itb.align_faults                0                       # Number of TLB faults due to alignment restrictions
system.switch_cpus1.itb.prefetch_faults             0                       # Number of TLB faults due to prefetch
system.switch_cpus1.itb.domain_faults               0                       # Number of TLB faults due to domain restrictions
system.switch_cpus1.itb.perms_faults                0                       # Number of TLB faults due to permissions restrictions
system.switch_cpus1.itb.read_accesses               0                       # DTB read accesses
system.switch_cpus1.itb.write_accesses              0                       # DTB write accesses
system.switch_cpus1.itb.inst_accesses               0                       # ITB inst accesses
system.switch_cpus1.itb.hits                        0                       # DTB hits
system.switch_cpus1.itb.misses                      0                       # DTB misses
system.switch_cpus1.itb.accesses                    0                       # DTB accesses
system.cpu1.workload.num_syscalls                   0                       # Number of system calls
system.switch_cpus1.numCycles               269629239                       # number of cpu cycles simulated
system.switch_cpus1.numWorkItemsStarted             0                       # number of work items this cpu started
system.switch_cpus1.numWorkItemsCompleted            0                       # number of work items this cpu completed
system.switch_cpus1.BPredUnit.lookups        23274961                       # Number of BP lookups
system.switch_cpus1.BPredUnit.condPredicted     18869754                       # Number of conditional branches predicted
system.switch_cpus1.BPredUnit.condIncorrect      2144202                       # Number of conditional branches incorrect
system.switch_cpus1.BPredUnit.BTBLookups      9514102                       # Number of BTB lookups
system.switch_cpus1.BPredUnit.BTBHits         8816598                       # Number of BTB hits
system.switch_cpus1.BPredUnit.BTBCorrect            0                       # Number of correct BTB predictions (this stat may not work properly.
system.switch_cpus1.BPredUnit.usedRAS         2525814                       # Number of times the RAS was used to get a target.
system.switch_cpus1.BPredUnit.RASInCorrect       100967                       # Number of incorrect RAS predictions.
system.switch_cpus1.fetch.icacheStallCycles    201623861                       # Number of cycles fetch is stalled on an Icache miss
system.switch_cpus1.fetch.Insts             129751146                       # Number of instructions fetch has processed
system.switch_cpus1.fetch.Branches           23274961                       # Number of branches that fetch encountered
system.switch_cpus1.fetch.predictedBranches     11342412                       # Number of branches that fetch has predicted taken
system.switch_cpus1.fetch.Cycles             28565025                       # Number of cycles fetch has run and was not squashing or blocked
system.switch_cpus1.fetch.SquashCycles        6542512                       # Number of cycles fetch has spent squashing
system.switch_cpus1.fetch.BlockedCycles       6615006                       # Number of cycles fetch has spent blocked
system.switch_cpus1.fetch.CacheLines         12460256                       # Number of cache lines fetched
system.switch_cpus1.fetch.IcacheSquashes      2141625                       # Number of outstanding Icache misses that were squashed
system.switch_cpus1.fetch.rateDist::samples    241174572                       # Number of instructions fetched each cycle (Total)
system.switch_cpus1.fetch.rateDist::mean     0.660952                       # Number of instructions fetched each cycle (Total)
system.switch_cpus1.fetch.rateDist::stdev     2.018831                       # Number of instructions fetched each cycle (Total)
system.switch_cpus1.fetch.rateDist::underflows            0      0.00%      0.00% # Number of instructions fetched each cycle (Total)
system.switch_cpus1.fetch.rateDist::0       212609547     88.16%     88.16% # Number of instructions fetched each cycle (Total)
system.switch_cpus1.fetch.rateDist::1         1989563      0.82%     88.98% # Number of instructions fetched each cycle (Total)
system.switch_cpus1.fetch.rateDist::2         3613650      1.50%     90.48% # Number of instructions fetched each cycle (Total)
system.switch_cpus1.fetch.rateDist::3         3345857      1.39%     91.87% # Number of instructions fetched each cycle (Total)
system.switch_cpus1.fetch.rateDist::4         2125648      0.88%     92.75% # Number of instructions fetched each cycle (Total)
system.switch_cpus1.fetch.rateDist::5         1746359      0.72%     93.47% # Number of instructions fetched each cycle (Total)
system.switch_cpus1.fetch.rateDist::6         1001260      0.42%     93.89% # Number of instructions fetched each cycle (Total)
system.switch_cpus1.fetch.rateDist::7         1032949      0.43%     94.32% # Number of instructions fetched each cycle (Total)
system.switch_cpus1.fetch.rateDist::8        13709739      5.68%    100.00% # Number of instructions fetched each cycle (Total)
system.switch_cpus1.fetch.rateDist::overflows            0      0.00%    100.00% # Number of instructions fetched each cycle (Total)
system.switch_cpus1.fetch.rateDist::min_value            0                       # Number of instructions fetched each cycle (Total)
system.switch_cpus1.fetch.rateDist::max_value            8                       # Number of instructions fetched each cycle (Total)
system.switch_cpus1.fetch.rateDist::total    241174572                       # Number of instructions fetched each cycle (Total)
system.switch_cpus1.fetch.branchRate         0.086322                       # Number of branch fetches per cycle
system.switch_cpus1.fetch.rate               0.481221                       # Number of inst fetches per cycle
system.switch_cpus1.decode.IdleCycles       199556024                       # Number of cycles decode is idle
system.switch_cpus1.decode.BlockedCycles      8701173                       # Number of cycles decode is blocked
system.switch_cpus1.decode.RunCycles         28495946                       # Number of cycles decode is running
system.switch_cpus1.decode.UnblockCycles        50969                       # Number of cycles decode is unblocking
system.switch_cpus1.decode.SquashCycles       4370455                       # Number of cycles decode is squashing
system.switch_cpus1.decode.BranchResolved      4040733                       # Number of times decode resolved a branch
system.switch_cpus1.decode.BranchMispred          225                       # Number of times decode detected a branch misprediction
system.switch_cpus1.decode.DecodedInsts     159301313                       # Number of instructions handled by decode
system.switch_cpus1.decode.SquashedInsts         1289                       # Number of squashed instructions handled by decode
system.switch_cpus1.rename.SquashCycles       4370455                       # Number of cycles rename is squashing
system.switch_cpus1.rename.IdleCycles       200067565                       # Number of cycles rename is idle
system.switch_cpus1.rename.BlockCycles        1518126                       # Number of cycles rename is blocking
system.switch_cpus1.rename.serializeStallCycles      5997498                       # count of cycles rename stalled for serializing inst
system.switch_cpus1.rename.RunCycles         28005117                       # Number of cycles rename is running
system.switch_cpus1.rename.UnblockCycles      1215806                       # Number of cycles rename is unblocking
system.switch_cpus1.rename.RenamedInsts     159165498                       # Number of instructions processed by rename
system.switch_cpus1.rename.IQFullEvents        214702                       # Number of times rename has blocked due to IQ full
system.switch_cpus1.rename.LSQFullEvents       517307                       # Number of times rename has blocked due to LSQ full
system.switch_cpus1.rename.RenamedOperands    225742248                       # Number of destination operands rename has renamed
system.switch_cpus1.rename.RenameLookups    741416405                       # Number of register rename lookups that rename has made
system.switch_cpus1.rename.int_rename_lookups    741416405                       # Number of integer rename lookups
system.switch_cpus1.rename.CommittedMaps    185776003                       # Number of HB maps that are committed
system.switch_cpus1.rename.UndoneMaps        39966244                       # Number of HB maps that are undone due to squashing
system.switch_cpus1.rename.serializingInsts        36584                       # count of serializing insts renamed
system.switch_cpus1.rename.tempSerializingInsts        18292                       # count of temporary serializing insts renamed
system.switch_cpus1.rename.skidInsts          4452953                       # count of insts added to the skid buffer
system.switch_cpus1.memDep0.insertedLoads     15036726                       # Number of loads inserted to the mem dependence unit.
system.switch_cpus1.memDep0.insertedStores      7772374                       # Number of stores inserted to the mem dependence unit.
system.switch_cpus1.memDep0.conflictingLoads        88508                       # Number of conflicting loads.
system.switch_cpus1.memDep0.conflictingStores      1733245                       # Number of conflicting stores.
system.switch_cpus1.iq.iqInstsAdded         158128889                       # Number of instructions added to the IQ (excludes non-spec)
system.switch_cpus1.iq.iqNonSpecInstsAdded        36583                       # Number of non-speculative instructions added to the IQ
system.switch_cpus1.iq.iqInstsIssued        149293685                       # Number of instructions issued
system.switch_cpus1.iq.iqSquashedInstsIssued       125864                       # Number of squashed instructions issued
system.switch_cpus1.iq.iqSquashedInstsExamined     23899762                       # Number of squashed instructions iterated over during squash; mainly for profiling
system.switch_cpus1.iq.iqSquashedOperandsExamined     50346689                       # Number of squashed operands that are examined and possibly removed from graph
system.switch_cpus1.iq.issued_per_cycle::samples    241174572                       # Number of insts issued each cycle
system.switch_cpus1.iq.issued_per_cycle::mean     0.619027                       # Number of insts issued each cycle
system.switch_cpus1.iq.issued_per_cycle::stdev     1.293569                       # Number of insts issued each cycle
system.switch_cpus1.iq.issued_per_cycle::underflows            0      0.00%      0.00% # Number of insts issued each cycle
system.switch_cpus1.iq.issued_per_cycle::0    176802453     73.31%     73.31% # Number of insts issued each cycle
system.switch_cpus1.iq.issued_per_cycle::1     27243443     11.30%     84.61% # Number of insts issued each cycle
system.switch_cpus1.iq.issued_per_cycle::2     14651619      6.08%     90.68% # Number of insts issued each cycle
system.switch_cpus1.iq.issued_per_cycle::3      7439379      3.08%     93.76% # Number of insts issued each cycle
system.switch_cpus1.iq.issued_per_cycle::4      8856235      3.67%     97.44% # Number of insts issued each cycle
system.switch_cpus1.iq.issued_per_cycle::5      2867801      1.19%     98.63% # Number of insts issued each cycle
system.switch_cpus1.iq.issued_per_cycle::6      2685238      1.11%     99.74% # Number of insts issued each cycle
system.switch_cpus1.iq.issued_per_cycle::7       473738      0.20%     99.94% # Number of insts issued each cycle
system.switch_cpus1.iq.issued_per_cycle::8       154666      0.06%    100.00% # Number of insts issued each cycle
system.switch_cpus1.iq.issued_per_cycle::overflows            0      0.00%    100.00% # Number of insts issued each cycle
system.switch_cpus1.iq.issued_per_cycle::min_value            0                       # Number of insts issued each cycle
system.switch_cpus1.iq.issued_per_cycle::max_value            8                       # Number of insts issued each cycle
system.switch_cpus1.iq.issued_per_cycle::total    241174572                       # Number of insts issued each cycle
system.switch_cpus1.iq.fu_full::No_OpClass            0      0.00%      0.00% # attempts to use FU when none available
system.switch_cpus1.iq.fu_full::IntAlu         450335     59.53%     59.53% # attempts to use FU when none available
system.switch_cpus1.iq.fu_full::IntMult             0      0.00%     59.53% # attempts to use FU when none available
system.switch_cpus1.iq.fu_full::IntDiv              0      0.00%     59.53% # attempts to use FU when none available
system.switch_cpus1.iq.fu_full::FloatAdd            0      0.00%     59.53% # attempts to use FU when none available
system.switch_cpus1.iq.fu_full::FloatCmp            0      0.00%     59.53% # attempts to use FU when none available
system.switch_cpus1.iq.fu_full::FloatCvt            0      0.00%     59.53% # attempts to use FU when none available
system.switch_cpus1.iq.fu_full::FloatMult            0      0.00%     59.53% # attempts to use FU when none available
system.switch_cpus1.iq.fu_full::FloatDiv            0      0.00%     59.53% # attempts to use FU when none available
system.switch_cpus1.iq.fu_full::FloatSqrt            0      0.00%     59.53% # attempts to use FU when none available
system.switch_cpus1.iq.fu_full::SimdAdd             0      0.00%     59.53% # attempts to use FU when none available
system.switch_cpus1.iq.fu_full::SimdAddAcc            0      0.00%     59.53% # attempts to use FU when none available
system.switch_cpus1.iq.fu_full::SimdAlu             0      0.00%     59.53% # attempts to use FU when none available
system.switch_cpus1.iq.fu_full::SimdCmp             0      0.00%     59.53% # attempts to use FU when none available
system.switch_cpus1.iq.fu_full::SimdCvt             0      0.00%     59.53% # attempts to use FU when none available
system.switch_cpus1.iq.fu_full::SimdMisc            0      0.00%     59.53% # attempts to use FU when none available
system.switch_cpus1.iq.fu_full::SimdMult            0      0.00%     59.53% # attempts to use FU when none available
system.switch_cpus1.iq.fu_full::SimdMultAcc            0      0.00%     59.53% # attempts to use FU when none available
system.switch_cpus1.iq.fu_full::SimdShift            0      0.00%     59.53% # attempts to use FU when none available
system.switch_cpus1.iq.fu_full::SimdShiftAcc            0      0.00%     59.53% # attempts to use FU when none available
system.switch_cpus1.iq.fu_full::SimdSqrt            0      0.00%     59.53% # attempts to use FU when none available
system.switch_cpus1.iq.fu_full::SimdFloatAdd            0      0.00%     59.53% # attempts to use FU when none available
system.switch_cpus1.iq.fu_full::SimdFloatAlu            0      0.00%     59.53% # attempts to use FU when none available
system.switch_cpus1.iq.fu_full::SimdFloatCmp            0      0.00%     59.53% # attempts to use FU when none available
system.switch_cpus1.iq.fu_full::SimdFloatCvt            0      0.00%     59.53% # attempts to use FU when none available
system.switch_cpus1.iq.fu_full::SimdFloatDiv            0      0.00%     59.53% # attempts to use FU when none available
system.switch_cpus1.iq.fu_full::SimdFloatMisc            0      0.00%     59.53% # attempts to use FU when none available
system.switch_cpus1.iq.fu_full::SimdFloatMult            0      0.00%     59.53% # attempts to use FU when none available
system.switch_cpus1.iq.fu_full::SimdFloatMultAcc            0      0.00%     59.53% # attempts to use FU when none available
system.switch_cpus1.iq.fu_full::SimdFloatSqrt            0      0.00%     59.53% # attempts to use FU when none available
system.switch_cpus1.iq.fu_full::MemRead        157120     20.77%     80.29% # attempts to use FU when none available
system.switch_cpus1.iq.fu_full::MemWrite       149078     19.71%    100.00% # attempts to use FU when none available
system.switch_cpus1.iq.fu_full::IprAccess            0      0.00%    100.00% # attempts to use FU when none available
system.switch_cpus1.iq.fu_full::InstPrefetch            0      0.00%    100.00% # attempts to use FU when none available
system.switch_cpus1.iq.FU_type_0::No_OpClass            0      0.00%      0.00% # Type of FU issued
system.switch_cpus1.iq.FU_type_0::IntAlu    125551125     84.10%     84.10% # Type of FU issued
system.switch_cpus1.iq.FU_type_0::IntMult      2140664      1.43%     85.53% # Type of FU issued
system.switch_cpus1.iq.FU_type_0::IntDiv            0      0.00%     85.53% # Type of FU issued
system.switch_cpus1.iq.FU_type_0::FloatAdd            0      0.00%     85.53% # Type of FU issued
system.switch_cpus1.iq.FU_type_0::FloatCmp            0      0.00%     85.53% # Type of FU issued
system.switch_cpus1.iq.FU_type_0::FloatCvt            0      0.00%     85.53% # Type of FU issued
system.switch_cpus1.iq.FU_type_0::FloatMult            0      0.00%     85.53% # Type of FU issued
system.switch_cpus1.iq.FU_type_0::FloatDiv            0      0.00%     85.53% # Type of FU issued
system.switch_cpus1.iq.FU_type_0::FloatSqrt            0      0.00%     85.53% # Type of FU issued
system.switch_cpus1.iq.FU_type_0::SimdAdd            0      0.00%     85.53% # Type of FU issued
system.switch_cpus1.iq.FU_type_0::SimdAddAcc            0      0.00%     85.53% # Type of FU issued
system.switch_cpus1.iq.FU_type_0::SimdAlu            0      0.00%     85.53% # Type of FU issued
system.switch_cpus1.iq.FU_type_0::SimdCmp            0      0.00%     85.53% # Type of FU issued
system.switch_cpus1.iq.FU_type_0::SimdCvt            0      0.00%     85.53% # Type of FU issued
system.switch_cpus1.iq.FU_type_0::SimdMisc            0      0.00%     85.53% # Type of FU issued
system.switch_cpus1.iq.FU_type_0::SimdMult            0      0.00%     85.53% # Type of FU issued
system.switch_cpus1.iq.FU_type_0::SimdMultAcc            0      0.00%     85.53% # Type of FU issued
system.switch_cpus1.iq.FU_type_0::SimdShift            0      0.00%     85.53% # Type of FU issued
system.switch_cpus1.iq.FU_type_0::SimdShiftAcc            0      0.00%     85.53% # Type of FU issued
system.switch_cpus1.iq.FU_type_0::SimdSqrt            0      0.00%     85.53% # Type of FU issued
system.switch_cpus1.iq.FU_type_0::SimdFloatAdd            0      0.00%     85.53% # Type of FU issued
system.switch_cpus1.iq.FU_type_0::SimdFloatAlu            0      0.00%     85.53% # Type of FU issued
system.switch_cpus1.iq.FU_type_0::SimdFloatCmp            0      0.00%     85.53% # Type of FU issued
system.switch_cpus1.iq.FU_type_0::SimdFloatCvt            0      0.00%     85.53% # Type of FU issued
system.switch_cpus1.iq.FU_type_0::SimdFloatDiv            0      0.00%     85.53% # Type of FU issued
system.switch_cpus1.iq.FU_type_0::SimdFloatMisc        18292      0.01%     85.54% # Type of FU issued
system.switch_cpus1.iq.FU_type_0::SimdFloatMult            0      0.00%     85.54% # Type of FU issued
system.switch_cpus1.iq.FU_type_0::SimdFloatMultAcc            0      0.00%     85.54% # Type of FU issued
system.switch_cpus1.iq.FU_type_0::SimdFloatSqrt            0      0.00%     85.54% # Type of FU issued
system.switch_cpus1.iq.FU_type_0::MemRead     13836145      9.27%     94.81% # Type of FU issued
system.switch_cpus1.iq.FU_type_0::MemWrite      7747459      5.19%    100.00% # Type of FU issued
system.switch_cpus1.iq.FU_type_0::IprAccess            0      0.00%    100.00% # Type of FU issued
system.switch_cpus1.iq.FU_type_0::InstPrefetch            0      0.00%    100.00% # Type of FU issued
system.switch_cpus1.iq.FU_type_0::total     149293685                       # Type of FU issued
system.switch_cpus1.iq.rate                  0.553700                       # Inst issue rate
system.switch_cpus1.iq.fu_busy_cnt             756533                       # FU busy when requested
system.switch_cpus1.iq.fu_busy_rate          0.005067                       # FU busy rate (busy events/executed inst)
system.switch_cpus1.iq.int_inst_queue_reads    540644338                       # Number of integer instruction queue reads
system.switch_cpus1.iq.int_inst_queue_writes    182065464                       # Number of integer instruction queue writes
system.switch_cpus1.iq.int_inst_queue_wakeup_accesses    146067936                       # Number of integer instruction queue wakeup accesses
system.switch_cpus1.iq.fp_inst_queue_reads            0                       # Number of floating instruction queue reads
system.switch_cpus1.iq.fp_inst_queue_writes            0                       # Number of floating instruction queue writes
system.switch_cpus1.iq.fp_inst_queue_wakeup_accesses            0                       # Number of floating instruction queue wakeup accesses
system.switch_cpus1.iq.int_alu_accesses     150050218                       # Number of integer alu accesses
system.switch_cpus1.iq.fp_alu_accesses              0                       # Number of floating point alu accesses
system.switch_cpus1.iew.lsq.thread0.forwLoads       289777                       # Number of loads that had data forwarded from stores
system.switch_cpus1.iew.lsq.thread0.invAddrLoads            0                       # Number of loads ignored due to an invalid address
system.switch_cpus1.iew.lsq.thread0.squashedLoads      2925922                       # Number of loads squashed
system.switch_cpus1.iew.lsq.thread0.ignoredResponses            8                       # Number of memory responses ignored because the instruction is squashed
system.switch_cpus1.iew.lsq.thread0.memOrderViolation          230                       # Number of memory ordering violations
system.switch_cpus1.iew.lsq.thread0.squashedStores       100251                       # Number of stores squashed
system.switch_cpus1.iew.lsq.thread0.invAddrSwpfs            0                       # Number of software prefetches ignored due to an invalid address
system.switch_cpus1.iew.lsq.thread0.blockedLoads            0                       # Number of blocked loads due to partial load-store forwarding
system.switch_cpus1.iew.lsq.thread0.rescheduledLoads            0                       # Number of loads that were rescheduled
system.switch_cpus1.iew.lsq.thread0.cacheBlocked            0                       # Number of times an access to memory failed due to the cache being blocked
system.switch_cpus1.iew.iewIdleCycles               0                       # Number of cycles IEW is idle
system.switch_cpus1.iew.iewSquashCycles       4370455                       # Number of cycles IEW is squashing
system.switch_cpus1.iew.iewBlockCycles        1078960                       # Number of cycles IEW is blocking
system.switch_cpus1.iew.iewUnblockCycles       125931                       # Number of cycles IEW is unblocking
system.switch_cpus1.iew.iewDispatchedInsts    158165472                       # Number of instructions dispatched to IQ
system.switch_cpus1.iew.iewDispSquashedInsts         9164                       # Number of squashed instructions skipped by dispatch
system.switch_cpus1.iew.iewDispLoadInsts     15036726                       # Number of dispatched load instructions
system.switch_cpus1.iew.iewDispStoreInsts      7772374                       # Number of dispatched store instructions
system.switch_cpus1.iew.iewDispNonSpecInsts        18292                       # Number of dispatched non-speculative instructions
system.switch_cpus1.iew.iewIQFullEvents        107965                       # Number of times the IQ has become full, causing a stall
system.switch_cpus1.iew.iewLSQFullEvents            0                       # Number of times the LSQ has become full, causing a stall
system.switch_cpus1.iew.memOrderViolationEvents          230                       # Number of memory order violations
system.switch_cpus1.iew.predictedTakenIncorrect      1144753                       # Number of branches that were predicted taken incorrectly
system.switch_cpus1.iew.predictedNotTakenIncorrect      1195050                       # Number of branches that were predicted not taken incorrectly
system.switch_cpus1.iew.branchMispredicts      2339803                       # Number of branch mispredicts detected at execute
system.switch_cpus1.iew.iewExecutedInsts    147141595                       # Number of executed instructions
system.switch_cpus1.iew.iewExecLoadInsts     13348266                       # Number of load instructions executed
system.switch_cpus1.iew.iewExecSquashedInsts      2152089                       # Number of squashed instructions skipped in execute
system.switch_cpus1.iew.exec_swp                    0                       # number of swp insts executed
system.switch_cpus1.iew.exec_nop                    0                       # number of nop insts executed
system.switch_cpus1.iew.exec_refs            21095555                       # number of memory reference insts executed
system.switch_cpus1.iew.exec_branches        20772136                       # Number of branches executed
system.switch_cpus1.iew.exec_stores           7747289                       # Number of stores executed
system.switch_cpus1.iew.exec_rate            0.545718                       # Inst execution rate
system.switch_cpus1.iew.wb_sent             146067971                       # cumulative count of insts sent to commit
system.switch_cpus1.iew.wb_count            146067936                       # cumulative count of insts written-back
system.switch_cpus1.iew.wb_producers         84286539                       # num instructions producing a value
system.switch_cpus1.iew.wb_consumers        234827813                       # num instructions consuming a value
system.switch_cpus1.iew.wb_penalized                0                       # number of instrctions required to write to 'other' IQ
system.switch_cpus1.iew.wb_rate              0.541736                       # insts written-back per cycle
system.switch_cpus1.iew.wb_fanout            0.358929                       # average fanout of values written-back
system.switch_cpus1.iew.wb_penalized_rate            0                       # fraction of instructions written-back that wrote to 'other' IQ
system.switch_cpus1.commit.commitCommittedInsts    108195598                       # The number of committed instructions
system.switch_cpus1.commit.commitCommittedOps    133220517                       # The number of committed instructions
system.switch_cpus1.commit.commitSquashedInsts     24945348                       # The number of squashed insts skipped by commit
system.switch_cpus1.commit.commitNonSpecStalls        36583                       # The number of times commit has been forced to stall to communicate backwards
system.switch_cpus1.commit.branchMispredicts      2171415                       # The number of times a branch was mispredicted
system.switch_cpus1.commit.committed_per_cycle::samples    236804117                       # Number of insts commited each cycle
system.switch_cpus1.commit.committed_per_cycle::mean     0.562577                       # Number of insts commited each cycle
system.switch_cpus1.commit.committed_per_cycle::stdev     1.362271                       # Number of insts commited each cycle
system.switch_cpus1.commit.committed_per_cycle::underflows            0      0.00%      0.00% # Number of insts commited each cycle
system.switch_cpus1.commit.committed_per_cycle::0    180700885     76.31%     76.31% # Number of insts commited each cycle
system.switch_cpus1.commit.committed_per_cycle::1     25827717     10.91%     87.21% # Number of insts commited each cycle
system.switch_cpus1.commit.committed_per_cycle::2     13396295      5.66%     92.87% # Number of insts commited each cycle
system.switch_cpus1.commit.committed_per_cycle::3      4302493      1.82%     94.69% # Number of insts commited each cycle
system.switch_cpus1.commit.committed_per_cycle::4      5914591      2.50%     97.19% # Number of insts commited each cycle
system.switch_cpus1.commit.committed_per_cycle::5      1983804      0.84%     98.02% # Number of insts commited each cycle
system.switch_cpus1.commit.committed_per_cycle::6      1147954      0.48%     98.51% # Number of insts commited each cycle
system.switch_cpus1.commit.committed_per_cycle::7      1015401      0.43%     98.94% # Number of insts commited each cycle
system.switch_cpus1.commit.committed_per_cycle::8      2514977      1.06%    100.00% # Number of insts commited each cycle
system.switch_cpus1.commit.committed_per_cycle::overflows            0      0.00%    100.00% # Number of insts commited each cycle
system.switch_cpus1.commit.committed_per_cycle::min_value            0                       # Number of insts commited each cycle
system.switch_cpus1.commit.committed_per_cycle::max_value            8                       # Number of insts commited each cycle
system.switch_cpus1.commit.committed_per_cycle::total    236804117                       # Number of insts commited each cycle
system.switch_cpus1.commit.committedInsts    108195598                       # Number of instructions committed
system.switch_cpus1.commit.committedOps     133220517                       # Number of ops (including micro ops) committed
system.switch_cpus1.commit.swp_count                0                       # Number of s/w prefetches committed
system.switch_cpus1.commit.refs              19782926                       # Number of memory references committed
system.switch_cpus1.commit.loads             12110804                       # Number of loads committed
system.switch_cpus1.commit.membars              18291                       # Number of memory barriers committed
system.switch_cpus1.commit.branches          19229006                       # Number of branches committed
system.switch_cpus1.commit.fp_insts                 0                       # Number of committed floating point instructions.
system.switch_cpus1.commit.int_insts        120021404                       # Number of committed integer instructions.
system.switch_cpus1.commit.function_calls      2747667                       # Number of function calls committed.
system.switch_cpus1.commit.bw_lim_events      2514977                       # number cycles where commit BW limit reached
system.switch_cpus1.commit.bw_limited               0                       # number of insts not committed due to BW limits
system.switch_cpus1.rob.rob_reads           392455005                       # The number of ROB reads
system.switch_cpus1.rob.rob_writes          320702226                       # The number of ROB writes
system.switch_cpus1.timesIdled                3130251                       # Number of times that the entire CPU went into an idle state and unscheduled itself
system.switch_cpus1.idleCycles               28454667                       # Total number of cycles that the CPU has spent unscheduled due to idling
system.switch_cpus1.committedInsts          108195598                       # Number of Instructions Simulated
system.switch_cpus1.committedOps            133220517                       # Number of Ops (including micro ops) Simulated
system.switch_cpus1.committedInsts_total    108195598                       # Number of Instructions Simulated
system.switch_cpus1.cpi                      2.492054                       # CPI: Cycles Per Instruction
system.switch_cpus1.cpi_total                2.492054                       # CPI: Total CPI of All Threads
system.switch_cpus1.ipc                      0.401275                       # IPC: Instructions Per Cycle
system.switch_cpus1.ipc_total                0.401275                       # IPC: Total IPC of All Threads
system.switch_cpus1.int_regfile_reads       661789840                       # number of integer regfile reads
system.switch_cpus1.int_regfile_writes      204406120                       # number of integer regfile writes
system.switch_cpus1.misc_regfile_reads      146979083                       # number of misc regfile reads
system.switch_cpus1.misc_regfile_writes         36584                       # number of misc regfile writes
[...]
system.cpu1.icache.ReadReq_miss_latency::total      2999087                       # number of ReadReq miss cycles
system.cpu1.icache.demand_miss_latency::switch_cpus1.inst      2999087                       # number of demand (read+write) miss cycles
system.cpu1.icache.demand_miss_latency::total      2999087                       # number of demand (read+write) miss cycles
system.cpu1.icache.overall_miss_latency::switch_cpus1.inst      2999087                       # number of overall miss cycles
system.cpu1.icache.overall_miss_latency::total      2999087                       # number of overall miss cycles
system.cpu1.icache.ReadReq_accesses::switch_cpus1.inst     12460256                       # number of ReadReq accesses(hits+misses)
system.cpu1.icache.ReadReq_accesses::total     12460256                       # number of ReadReq accesses(hits+misses)
system.cpu1.icache.demand_accesses::switch_cpus1.inst     12460256                       # number of demand (read+write) accesses
system.cpu1.icache.demand_accesses::total     12460256                       # number of demand (read+write) accesses
system.cpu1.icache.overall_accesses::switch_cpus1.inst     12460256                       # number of overall (read+write) accesses
system.cpu1.icache.overall_accesses::total     12460256                       # number of overall (read+write) accesses
system.cpu1.icache.ReadReq_miss_rate::switch_cpus1.inst     0.000001                       # miss rate for ReadReq accesses
system.cpu1.icache.ReadReq_miss_rate::total     0.000001                       # miss rate for ReadReq accesses
system.cpu1.icache.demand_miss_rate::switch_cpus1.inst     0.000001                       # miss rate for demand accesses
system.cpu1.icache.demand_miss_rate::total     0.000001                       # miss rate for demand accesses
system.cpu1.icache.overall_miss_rate::switch_cpus1.inst     0.000001                       # miss rate for overall accesses
system.cpu1.icache.overall_miss_rate::total     0.000001                       # miss rate for overall accesses
system.cpu1.icache.ReadReq_avg_miss_latency::switch_cpus1.inst 199939.133333                       # average ReadReq miss latency
system.cpu1.icache.ReadReq_avg_miss_latency::total 199939.133333                       # average ReadReq miss latency
system.cpu1.icache.demand_avg_miss_latency::switch_cpus1.inst 199939.133333                       # average overall miss latency
system.cpu1.icache.demand_avg_miss_latency::total 199939.133333                       # average overall miss latency
system.cpu1.icache.overall_avg_miss_latency::switch_cpus1.inst 199939.133333                       # average overall miss latency
system.cpu1.icache.overall_avg_miss_latency::total 199939.133333                       # average overall miss latency
system.cpu1.icache.blocked_cycles::no_mshrs            0                       # number of cycles access was blocked
system.cpu1.icache.blocked_cycles::no_targets            0                       # number of cycles access was blocked
system.cpu1.icache.blocked::no_mshrs                0                       # number of cycles access was blocked
system.cpu1.icache.blocked::no_targets              0                       # number of cycles access was blocked
system.cpu1.icache.avg_blocked_cycles::no_mshrs          nan                       # average number of cycles each access was blocked
system.cpu1.icache.avg_blocked_cycles::no_targets          nan                       # average number of cycles each access was blocked
system.cpu1.icache.fast_writes                      0                       # number of fast writes performed
system.cpu1.icache.cache_copies                     0                       # number of cache copies performed
system.cpu1.icache.ReadReq_mshr_hits::switch_cpus1.inst            1                       # number of ReadReq MSHR hits
system.cpu1.icache.ReadReq_mshr_hits::total            1                       # number of ReadReq MSHR hits
system.cpu1.icache.demand_mshr_hits::switch_cpus1.inst            1                       # number of demand (read+write) MSHR hits
system.cpu1.icache.demand_mshr_hits::total            1                       # number of demand (read+write) MSHR hits
system.cpu1.icache.overall_mshr_hits::switch_cpus1.inst            1                       # number of overall MSHR hits
system.cpu1.icache.overall_mshr_hits::total            1                       # number of overall MSHR hits
system.cpu1.icache.ReadReq_mshr_misses::switch_cpus1.inst           14                       # number of ReadReq MSHR misses
system.cpu1.icache.ReadReq_mshr_misses::total           14                       # number of ReadReq MSHR misses
system.cpu1.icache.demand_mshr_misses::switch_cpus1.inst           14                       # number of demand (read+write) MSHR misses
system.cpu1.icache.demand_mshr_misses::total           14                       # number of demand (read+write) MSHR misses
system.cpu1.icache.overall_mshr_misses::switch_cpus1.inst           14                       # number of overall MSHR misses
system.cpu1.icache.overall_mshr_misses::total           14                       # number of overall MSHR misses
system.cpu1.icache.ReadReq_mshr_miss_latency::switch_cpus1.inst      2698012                       # number of ReadReq MSHR miss cycles
system.cpu1.icache.ReadReq_mshr_miss_latency::total      2698012                       # number of ReadReq MSHR miss cycles
system.cpu1.icache.demand_mshr_miss_latency::switch_cpus1.inst      2698012                       # number of demand (read+write) MSHR miss cycles
system.cpu1.icache.demand_mshr_miss_latency::total      2698012                       # number of demand (read+write) MSHR miss cycles
system.cpu1.icache.overall_mshr_miss_latency::switch_cpus1.inst      2698012                       # number of overall MSHR miss cycles
system.cpu1.icache.overall_mshr_miss_latency::total      2698012                       # number of overall MSHR miss cycles
system.cpu1.icache.ReadReq_mshr_miss_rate::switch_cpus1.inst     0.000001                       # mshr miss rate for ReadReq accesses
system.cpu1.icache.ReadReq_mshr_miss_rate::total     0.000001                       # mshr miss rate for ReadReq accesses
system.cpu1.icache.demand_mshr_miss_rate::switch_cpus1.inst     0.000001                       # mshr miss rate for demand accesses
system.cpu1.icache.demand_mshr_miss_rate::total     0.000001                       # mshr miss rate for demand accesses
system.cpu1.icache.overall_mshr_miss_rate::switch_cpus1.inst     0.000001                       # mshr miss rate for overall accesses
system.cpu1.icache.overall_mshr_miss_rate::total     0.000001                       # mshr miss rate for overall accesses
system.cpu1.icache.ReadReq_avg_mshr_miss_latency::switch_cpus1.inst 192715.142857                       # average ReadReq mshr miss latency
system.cpu1.icache.ReadReq_avg_mshr_miss_latency::total 192715.142857                       # average ReadReq mshr miss latency
system.cpu1.icache.demand_avg_mshr_miss_latency::switch_cpus1.inst 192715.142857                       # average overall mshr miss latency
system.cpu1.icache.demand_avg_mshr_miss_latency::total 192715.142857                       # average overall mshr miss latency
system.cpu1.icache.overall_avg_mshr_miss_latency::switch_cpus1.inst 192715.142857                       # average overall mshr miss latency
system.cpu1.icache.overall_avg_mshr_miss_latency::total 192715.142857                       # average overall mshr miss latency
system.cpu1.icache.no_allocate_misses               0                       # Number of misses that were no-allocate
system.cpu1.dcache.replacements                 42198                       # number of replacements
system.cpu1.dcache.tagsinuse                      256                       # Cycle average of tags in use
system.cpu1.dcache.total_refs               169891479                       # Total number of references to valid blocks.
system.cpu1.dcache.sampled_refs                 42454                       # Sample count of references to valid blocks.
system.cpu1.dcache.avg_refs               4001.777901                       # Average number of references to valid blocks.
system.cpu1.dcache.warmup_cycle                     0                       # Cycle when the warmup percentage was hit.
system.cpu1.dcache.occ_blocks::switch_cpus1.data   233.046317                       # Average occupied blocks per requestor
system.cpu1.dcache.occ_blocks::cpu1.data    22.953683                       # Average occupied blocks per requestor
system.cpu1.dcache.occ_percent::switch_cpus1.data     0.910337                       # Average percentage of cache occupancy
system.cpu1.dcache.occ_percent::cpu1.data     0.089663                       # Average percentage of cache occupancy
system.cpu1.dcache.occ_percent::total               1                       # Average percentage of cache occupancy
system.cpu1.dcache.ReadReq_hits::switch_cpus1.data     10029531                       # number of ReadReq hits
system.cpu1.dcache.ReadReq_hits::total       10029531                       # number of ReadReq hits
system.cpu1.dcache.WriteReq_hits::switch_cpus1.data      7637375                       # number of WriteReq hits
system.cpu1.dcache.WriteReq_hits::total       7637375                       # number of WriteReq hits
system.cpu1.dcache.LoadLockedReq_hits::switch_cpus1.data        18292                       # number of LoadLockedReq hits
system.cpu1.dcache.LoadLockedReq_hits::total        18292                       # number of LoadLockedReq hits
system.cpu1.dcache.StoreCondReq_hits::switch_cpus1.data        18291                       # number of StoreCondReq hits
system.cpu1.dcache.StoreCondReq_hits::total        18291                       # number of StoreCondReq hits
system.cpu1.dcache.demand_hits::switch_cpus1.data     17666906                       # number of demand (read+write) hits
system.cpu1.dcache.demand_hits::total        17666906                       # number of demand (read+write) hits
system.cpu1.dcache.overall_hits::switch_cpus1.data     17666906                       # number of overall hits
system.cpu1.dcache.overall_hits::total       17666906                       # number of overall hits
system.cpu1.dcache.ReadReq_misses::switch_cpus1.data       127038                       # number of ReadReq misses
system.cpu1.dcache.ReadReq_misses::total       127038                       # number of ReadReq misses
system.cpu1.dcache.demand_misses::switch_cpus1.data       127038                       # number of demand (read+write) misses
system.cpu1.dcache.demand_misses::total        127038                       # number of demand (read+write) misses
system.cpu1.dcache.overall_misses::switch_cpus1.data       127038                       # number of overall misses
system.cpu1.dcache.overall_misses::total       127038                       # number of overall misses
system.cpu1.dcache.ReadReq_miss_latency::switch_cpus1.data  28542671073                       # number of ReadReq miss cycles
system.cpu1.dcache.ReadReq_miss_latency::total  28542671073                       # number of ReadReq miss cycles
system.cpu1.dcache.demand_miss_latency::switch_cpus1.data  28542671073                       # number of demand (read+write) miss cycles
system.cpu1.dcache.demand_miss_latency::total  28542671073                       # number of demand (read+write) miss cycles
system.cpu1.dcache.overall_miss_latency::switch_cpus1.data  28542671073                       # number of overall miss cycles
system.cpu1.dcache.overall_miss_latency::total  28542671073                       # number of overall miss cycles
system.cpu1.dcache.ReadReq_accesses::switch_cpus1.data     10156569                       # number of ReadReq accesses(hits+misses)
system.cpu1.dcache.ReadReq_accesses::total     10156569                       # number of ReadReq accesses(hits+misses)
system.cpu1.dcache.WriteReq_accesses::switch_cpus1.data      7637375                       # number of WriteReq accesses(hits+misses)
system.cpu1.dcache.WriteReq_accesses::total      7637375                       # number of WriteReq accesses(hits+misses)
system.cpu1.dcache.LoadLockedReq_accesses::switch_cpus1.data        18292                       # number of LoadLockedReq accesses(hits+misses)
system.cpu1.dcache.LoadLockedReq_accesses::total        18292                       # number of LoadLockedReq accesses(hits+misses)
system.cpu1.dcache.StoreCondReq_accesses::switch_cpus1.data        18291                       # number of StoreCondReq accesses(hits+misses)
system.cpu1.dcache.StoreCondReq_accesses::total        18291                       # number of StoreCondReq accesses(hits+misses)
system.cpu1.dcache.demand_accesses::switch_cpus1.data     17793944                       # number of demand (read+write) accesses
system.cpu1.dcache.demand_accesses::total     17793944                       # number of demand (read+write) accesses
system.cpu1.dcache.overall_accesses::switch_cpus1.data     17793944                       # number of overall (read+write) accesses
system.cpu1.dcache.overall_accesses::total     17793944                       # number of overall (read+write) accesses
system.cpu1.dcache.ReadReq_miss_rate::switch_cpus1.data     0.012508                       # miss rate for ReadReq accesses
system.cpu1.dcache.ReadReq_miss_rate::total     0.012508                       # miss rate for ReadReq accesses
system.cpu1.dcache.demand_miss_rate::switch_cpus1.data     0.007139                       # miss rate for demand accesses
system.cpu1.dcache.demand_miss_rate::total     0.007139                       # miss rate for demand accesses
system.cpu1.dcache.overall_miss_rate::switch_cpus1.data     0.007139                       # miss rate for overall accesses
system.cpu1.dcache.overall_miss_rate::total     0.007139                       # miss rate for overall accesses
system.cpu1.dcache.ReadReq_avg_miss_latency::switch_cpus1.data 224678.214967                       # average ReadReq miss latency
system.cpu1.dcache.ReadReq_avg_miss_latency::total 224678.214967                       # average ReadReq miss latency
system.cpu1.dcache.demand_avg_miss_latency::switch_cpus1.data 224678.214967                       # average overall miss latency
system.cpu1.dcache.demand_avg_miss_latency::total 224678.214967                       # average overall miss latency
system.cpu1.dcache.overall_avg_miss_latency::switch_cpus1.data 224678.214967                       # average overall miss latency
system.cpu1.dcache.overall_avg_miss_latency::total 224678.214967                       # average overall miss latency
system.cpu1.dcache.blocked_cycles::no_mshrs            0                       # number of cycles access was blocked
system.cpu1.dcache.blocked_cycles::no_targets            0                       # number of cycles access was blocked
system.cpu1.dcache.blocked::no_mshrs                0                       # number of cycles access was blocked
system.cpu1.dcache.blocked::no_targets              0                       # number of cycles access was blocked
system.cpu1.dcache.avg_blocked_cycles::no_mshrs          nan                       # average number of cycles each access was blocked
system.cpu1.dcache.avg_blocked_cycles::no_targets          nan                       # average number of cycles each access was blocked
system.cpu1.dcache.fast_writes                      0                       # number of fast writes performed
system.cpu1.dcache.cache_copies                     0                       # number of cache copies performed
system.cpu1.dcache.writebacks::writebacks         8963                       # number of writebacks
system.cpu1.dcache.writebacks::total             8963                       # number of writebacks
system.cpu1.dcache.ReadReq_mshr_hits::switch_cpus1.data        84840                       # number of ReadReq MSHR hits
system.cpu1.dcache.ReadReq_mshr_hits::total        84840                       # number of ReadReq MSHR hits
system.cpu1.dcache.demand_mshr_hits::switch_cpus1.data        84840                       # number of demand (read+write) MSHR hits
system.cpu1.dcache.demand_mshr_hits::total        84840                       # number of demand (read+write) MSHR hits
system.cpu1.dcache.overall_mshr_hits::switch_cpus1.data        84840                       # number of overall MSHR hits
system.cpu1.dcache.overall_mshr_hits::total        84840                       # number of overall MSHR hits
system.cpu1.dcache.ReadReq_mshr_misses::switch_cpus1.data        42198                       # number of ReadReq MSHR misses
system.cpu1.dcache.ReadReq_mshr_misses::total        42198                       # number of ReadReq MSHR misses
system.cpu1.dcache.demand_mshr_misses::switch_cpus1.data        42198                       # number of demand (read+write) MSHR misses
system.cpu1.dcache.demand_mshr_misses::total        42198                       # number of demand (read+write) MSHR misses
system.cpu1.dcache.overall_mshr_misses::switch_cpus1.data        42198                       # number of overall MSHR misses
system.cpu1.dcache.overall_mshr_misses::total        42198                       # number of overall MSHR misses
system.cpu1.dcache.ReadReq_mshr_miss_latency::switch_cpus1.data   8863590495                       # number of ReadReq MSHR miss cycles
system.cpu1.dcache.ReadReq_mshr_miss_latency::total   8863590495                       # number of ReadReq MSHR miss cycles
system.cpu1.dcache.demand_mshr_miss_latency::switch_cpus1.data   8863590495                       # number of demand (read+write) MSHR miss cycles
system.cpu1.dcache.demand_mshr_miss_latency::total   8863590495                       # number of demand (read+write) MSHR miss cycles
system.cpu1.dcache.overall_mshr_miss_latency::switch_cpus1.data   8863590495                       # number of overall MSHR miss cycles
system.cpu1.dcache.overall_mshr_miss_latency::total   8863590495                       # number of overall MSHR miss cycles
system.cpu1.dcache.ReadReq_mshr_miss_rate::switch_cpus1.data     0.004155                       # mshr miss rate for ReadReq accesses
system.cpu1.dcache.ReadReq_mshr_miss_rate::total     0.004155                       # mshr miss rate for ReadReq accesses
system.cpu1.dcache.demand_mshr_miss_rate::switch_cpus1.data     0.002371                       # mshr miss rate for demand accesses
system.cpu1.dcache.demand_mshr_miss_rate::total     0.002371                       # mshr miss rate for demand accesses
system.cpu1.dcache.overall_mshr_miss_rate::switch_cpus1.data     0.002371                       # mshr miss rate for overall accesses
system.cpu1.dcache.overall_mshr_miss_rate::total     0.002371                       # mshr miss rate for overall accesses
system.cpu1.dcache.ReadReq_avg_mshr_miss_latency::switch_cpus1.data 210047.644320                       # average ReadReq mshr miss latency
system.cpu1.dcache.ReadReq_avg_mshr_miss_latency::total 210047.644320                       # average ReadReq mshr miss latency
system.cpu1.dcache.demand_avg_mshr_miss_latency::switch_cpus1.data 210047.644320                       # average overall mshr miss latency
system.cpu1.dcache.demand_avg_mshr_miss_latency::total 210047.644320                       # average overall mshr miss latency
system.cpu1.dcache.overall_avg_mshr_miss_latency::switch_cpus1.data 210047.644320                       # average overall mshr miss latency
system.cpu1.dcache.overall_avg_mshr_miss_latency::total 210047.644320                       # average overall mshr miss latency
system.cpu1.dcache.no_allocate_misses               0                       # Number of misses that were no-allocate

---------- End Simulation Statistics   ----------
