
---------- Begin Simulation Statistics ----------
sim_seconds                                  0.118354                       # Number of seconds simulated
sim_ticks                                118354019448                       # Number of ticks simulated
final_tick                               1171023037513                       # Number of ticks from beginning of simulation (restored from checkpoints and never reset)
sim_freq                                 1000000000000                       # Frequency of simulated ticks
host_inst_rate                                 133369                       # Simulator instruction rate (inst/s)
host_op_rate                                   168472                       # Simulator op (including micro ops) rate (op/s)
host_tick_rate                                4793384                       # Simulator tick rate (ticks/s)
host_mem_usage                               16907560                       # Number of bytes of host memory used
host_seconds                                 24691.12                       # Real time elapsed on the host
sim_insts                                  3293037684                       # Number of instructions simulated
sim_ops                                    4159763382                       # Number of ops (including micro ops) simulated
system.physmem.bytes_read::switch_cpus0.inst         1664                       # Number of bytes read from this memory
system.physmem.bytes_read::switch_cpus0.data      2430848                       # Number of bytes read from this memory
system.physmem.bytes_read::switch_cpus1.inst         1280                       # Number of bytes read from this memory
system.physmem.bytes_read::switch_cpus1.data      2164864                       # Number of bytes read from this memory
system.physmem.bytes_read::switch_cpus2.inst         1792                       # Number of bytes read from this memory
system.physmem.bytes_read::switch_cpus2.data       508928                       # Number of bytes read from this memory
system.physmem.bytes_read::total              5109376                       # Number of bytes read from this memory
system.physmem.bytes_inst_read::switch_cpus0.inst         1664                       # Number of instructions bytes read from this memory
system.physmem.bytes_inst_read::switch_cpus1.inst         1280                       # Number of instructions bytes read from this memory
system.physmem.bytes_inst_read::switch_cpus2.inst         1792                       # Number of instructions bytes read from this memory
system.physmem.bytes_inst_read::total            4736                       # Number of instructions bytes read from this memory
system.physmem.bytes_written::writebacks      1375104                       # Number of bytes written to this memory
system.physmem.bytes_written::total           1375104                       # Number of bytes written to this memory
system.physmem.num_reads::switch_cpus0.inst           13                       # Number of read requests responded to by this memory
system.physmem.num_reads::switch_cpus0.data        18991                       # Number of read requests responded to by this memory
system.physmem.num_reads::switch_cpus1.inst           10                       # Number of read requests responded to by this memory
system.physmem.num_reads::switch_cpus1.data        16913                       # Number of read requests responded to by this memory
system.physmem.num_reads::switch_cpus2.inst           14                       # Number of read requests responded to by this memory
system.physmem.num_reads::switch_cpus2.data         3976                       # Number of read requests responded to by this memory
system.physmem.num_reads::total                 39917                       # Number of read requests responded to by this memory
system.physmem.num_writes::writebacks           10743                       # Number of write requests responded to by this memory
system.physmem.num_writes::functional               0                       # Number of write requests responded to by this memory
system.physmem.num_writes::interrupt                0                       # Number of write requests responded to by this memory
system.physmem.num_writes::switch_cpus0.dtb.walker            0                       # Number of write requests responded to by this memory
system.physmem.num_writes::switch_cpus0.itb.walker            0                       # Number of write requests responded to by this memory
system.physmem.num_writes::switch_cpus0.inst            0                       # Number of write requests responded to by this memory
system.physmem.num_writes::switch_cpus0.data            0                       # Number of write requests responded to by this memory
system.physmem.num_writes::switch_cpus1.dtb.walker            0                       # Number of write requests responded to by this memory
system.physmem.num_writes::switch_cpus1.itb.walker            0                       # Number of write requests responded to by this memory
system.physmem.num_writes::switch_cpus1.inst            0                       # Number of write requests responded to by this memory
system.physmem.num_writes::switch_cpus1.data            0                       # Number of write requests responded to by this memory
system.physmem.num_writes::switch_cpus2.dtb.walker            0                       # Number of write requests responded to by this memory
system.physmem.num_writes::switch_cpus2.itb.walker            0                       # Number of write requests responded to by this memory
system.physmem.num_writes::switch_cpus2.inst            0                       # Number of write requests responded to by this memory
system.physmem.num_writes::switch_cpus2.data            0                       # Number of write requests responded to by this memory
system.physmem.num_writes::cpu0.dtb.walker            0                       # Number of write requests responded to by this memory
system.physmem.num_writes::cpu0.itb.walker            0                       # Number of write requests responded to by this memory
system.physmem.num_writes::cpu0.inst                0                       # Number of write requests responded to by this memory
system.physmem.num_writes::cpu0.data                0                       # Number of write requests responded to by this memory
system.physmem.num_writes::cpu1.dtb.walker            0                       # Number of write requests responded to by this memory
system.physmem.num_writes::cpu1.itb.walker            0                       # Number of write requests responded to by this memory
system.physmem.num_writes::cpu1.inst                0                       # Number of write requests responded to by this memory
system.physmem.num_writes::cpu1.data                0                       # Number of write requests responded to by this memory
system.physmem.num_writes::cpu2.dtb.walker            0                       # Number of write requests responded to by this memory
system.physmem.num_writes::cpu2.itb.walker            0                       # Number of write requests responded to by this memory
system.physmem.num_writes::cpu2.inst                0                       # Number of write requests responded to by this memory
system.physmem.num_writes::cpu2.data                0                       # Number of write requests responded to by this memory
system.physmem.num_writes::total                10743                       # Number of write requests responded to by this memory
system.physmem.bw_read::switch_cpus0.inst        14060                       # Total read bandwidth from this memory (bytes/s)
system.physmem.bw_read::switch_cpus0.data     20538787                       # Total read bandwidth from this memory (bytes/s)
system.physmem.bw_read::switch_cpus1.inst        10815                       # Total read bandwidth from this memory (bytes/s)
system.physmem.bw_read::switch_cpus1.data     18291428                       # Total read bandwidth from this memory (bytes/s)
system.physmem.bw_read::switch_cpus2.inst        15141                       # Total read bandwidth from this memory (bytes/s)
system.physmem.bw_read::switch_cpus2.data      4300048                       # Total read bandwidth from this memory (bytes/s)
system.physmem.bw_read::total                43170279                       # Total read bandwidth from this memory (bytes/s)
system.physmem.bw_inst_read::switch_cpus0.inst        14060                       # Instruction read bandwidth from this memory (bytes/s)
system.physmem.bw_inst_read::switch_cpus1.inst        10815                       # Instruction read bandwidth from this memory (bytes/s)
system.physmem.bw_inst_read::switch_cpus2.inst        15141                       # Instruction read bandwidth from this memory (bytes/s)
system.physmem.bw_inst_read::total              40016                       # Instruction read bandwidth from this memory (bytes/s)
system.physmem.bw_write::writebacks          11618566                       # Write bandwidth from this memory (bytes/s)
system.physmem.bw_write::total               11618566                       # Write bandwidth from this memory (bytes/s)
system.physmem.bw_total::writebacks          11618566                       # Total bandwidth to/from this memory (bytes/s)
system.physmem.bw_total::switch_cpus0.inst        14060                       # Total bandwidth to/from this memory (bytes/s)
system.physmem.bw_total::switch_cpus0.data     20538787                       # Total bandwidth to/from this memory (bytes/s)
system.physmem.bw_total::switch_cpus1.inst        10815                       # Total bandwidth to/from this memory (bytes/s)
system.physmem.bw_total::switch_cpus1.data     18291428                       # Total bandwidth to/from this memory (bytes/s)
system.physmem.bw_total::switch_cpus2.inst        15141                       # Total bandwidth to/from this memory (bytes/s)
system.physmem.bw_total::switch_cpus2.data      4300048                       # Total bandwidth to/from this memory (bytes/s)
system.physmem.bw_total::total               54788845                       # Total bandwidth to/from this memory (bytes/s)
system.switch_cpus0.dtb.inst_hits                   0                       # ITB inst hits
system.switch_cpus0.dtb.inst_misses                 0                       # ITB inst misses
system.switch_cpus0.dtb.read_hits                   0                       # DTB read hits
system.switch_cpus0.dtb.read_misses                 0                       # DTB read misses
system.switch_cpus0.dtb.write_hits                  0                       # DTB write hits
system.switch_cpus0.dtb.write_misses                0                       # DTB write misses
system.switch_cpus0.dtb.flush_tlb                   0                       # Number of times complete TLB was flushed
system.switch_cpus0.dtb.flush_tlb_mva               0                       # Number of times TLB was flushed by MVA
system.switch_cpus0.dtb.flush_tlb_mva_asid            0                       # Number of times TLB was flushed by MVA & ASID
system.switch_cpus0.dtb.flush_tlb_asid              0                       # Number of times TLB was flushed by ASID
system.switch_cpus0.dtb.flush_entries               0                       # Number of entries that have been flushed from TLB
system.switch_cpus0.dtb.align_faults                0                       # Number of TLB faults due to alignment restrictions
system.switch_cpus0.dtb.prefetch_faults             0                       # Number of TLB faults due to prefetch
system.switch_cpus0.dtb.domain_faults               0                       # Number of TLB faults due to domain restrictions
system.switch_cpus0.dtb.perms_faults                0                       # Number of TLB faults due to permissions restrictions
system.switch_cpus0.dtb.read_accesses               0                       # DTB read accesses
system.switch_cpus0.dtb.write_accesses              0                       # DTB write accesses
system.switch_cpus0.dtb.inst_accesses               0                       # ITB inst accesses
system.switch_cpus0.dtb.hits                        0                       # DTB hits
system.switch_cpus0.dtb.misses                      0                       # DTB misses
system.switch_cpus0.dtb.accesses                    0                       # DTB accesses
system.switch_cpus0.itb.inst_hits                   0                       # ITB inst hits
system.switch_cpus0.itb.inst_misses                 0                       # ITB inst misses
system.switch_cpus0.itb.read_hits                   0                       # DTB read hits
system.switch_cpus0.itb.read_misses                 0                       # DTB read misses
system.switch_cpus0.itb.write_hits                  0                       # DTB write hits
system.switch_cpus0.itb.write_misses                0                       # DTB write misses
system.switch_cpus0.itb.flush_tlb                   0                       # Number of times complete TLB was flushed
system.switch_cpus0.itb.flush_tlb_mva               0                       # Number of times TLB was flushed by MVA
system.switch_cpus0.itb.flush_tlb_mva_asid            0                       # Number of times TLB was flushed by MVA & ASID
system.switch_cpus0.itb.flush_tlb_asid              0                       # Number of times TLB was flushed by ASID
system.switch_cpus0.itb.flush_entries               0                       # Number of entries that have been flushed from TLB
system.switch_cpus0.itb.align_faults                0                       # Number of TLB faults due to alignment restrictions
system.switch_cpus0.itb.prefetch_faults             0                       # Number of TLB faults due to prefetch
system.switch_cpus0.itb.domain_faults               0                       # Number of TLB faults due to domain restrictions
system.switch_cpus0.itb.perms_faults                0                       # Number of TLB faults due to permissions restrictions
system.switch_cpus0.itb.read_accesses               0                       # DTB read accesses
system.switch_cpus0.itb.write_accesses              0                       # DTB write accesses
system.switch_cpus0.itb.inst_accesses               0                       # ITB inst accesses
system.switch_cpus0.itb.hits                        0                       # DTB hits
system.switch_cpus0.itb.misses                      0                       # DTB misses
system.switch_cpus0.itb.accesses                    0                       # DTB accesses
system.cpu0.workload.num_syscalls                   0                       # Number of system calls
system.switch_cpus0.numCycles               142081657                       # number of cpu cycles simulated
system.switch_cpus0.numWorkItemsStarted             0                       # number of work items this cpu started
system.switch_cpus0.numWorkItemsCompleted            0                       # number of work items this cpu completed
system.switch_cpus0.BPredUnit.lookups        23413866                       # Number of BP lookups
system.switch_cpus0.BPredUnit.condPredicted     18974930                       # Number of conditional branches predicted
system.switch_cpus0.BPredUnit.condIncorrect      2027699                       # Number of conditional branches incorrect
system.switch_cpus0.BPredUnit.BTBLookups      9450253                       # Number of BTB lookups
system.switch_cpus0.BPredUnit.BTBHits         8990339                       # Number of BTB hits
system.switch_cpus0.BPredUnit.BTBCorrect            0                       # Number of correct BTB predictions (this stat may not work properly.
system.switch_cpus0.BPredUnit.usedRAS         2502888                       # Number of times the RAS was used to get a target.
system.switch_cpus0.BPredUnit.RASInCorrect        90114                       # Number of incorrect RAS predictions.
system.switch_cpus0.fetch.icacheStallCycles    102112969                       # Number of cycles fetch is stalled on an Icache miss
system.switch_cpus0.fetch.Insts             128888931                       # Number of instructions fetch has processed
system.switch_cpus0.fetch.Branches           23413866                       # Number of branches that fetch encountered
system.switch_cpus0.fetch.predictedBranches     11493227                       # Number of branches that fetch has predicted taken
system.switch_cpus0.fetch.Cycles             28158556                       # Number of cycles fetch has run and was not squashing or blocked
system.switch_cpus0.fetch.SquashCycles        6581015                       # Number of cycles fetch has spent squashing
system.switch_cpus0.fetch.BlockedCycles       3265673                       # Number of cycles fetch has spent blocked
system.switch_cpus0.fetch.CacheLines         11916087                       # Number of cache lines fetched
system.switch_cpus0.fetch.IcacheSquashes      1635880                       # Number of outstanding Icache misses that were squashed
system.switch_cpus0.fetch.rateDist::samples    138045525                       # Number of instructions fetched each cycle (Total)
system.switch_cpus0.fetch.rateDist::mean     1.139926                       # Number of instructions fetched each cycle (Total)
system.switch_cpus0.fetch.rateDist::stdev     2.554163                       # Number of instructions fetched each cycle (Total)
system.switch_cpus0.fetch.rateDist::underflows            0      0.00%      0.00% # Number of instructions fetched each cycle (Total)
system.switch_cpus0.fetch.rateDist::0       109886969     79.60%     79.60% # Number of instructions fetched each cycle (Total)
system.switch_cpus0.fetch.rateDist::1         2646904      1.92%     81.52% # Number of instructions fetched each cycle (Total)
system.switch_cpus0.fetch.rateDist::2         2021025      1.46%     82.98% # Number of instructions fetched each cycle (Total)
system.switch_cpus0.fetch.rateDist::3         4959608      3.59%     86.58% # Number of instructions fetched each cycle (Total)
system.switch_cpus0.fetch.rateDist::4         1114836      0.81%     87.38% # Number of instructions fetched each cycle (Total)
system.switch_cpus0.fetch.rateDist::5         1601326      1.16%     88.54% # Number of instructions fetched each cycle (Total)
system.switch_cpus0.fetch.rateDist::6         1214628      0.88%     89.42% # Number of instructions fetched each cycle (Total)
system.switch_cpus0.fetch.rateDist::7          761610      0.55%     89.98% # Number of instructions fetched each cycle (Total)
system.switch_cpus0.fetch.rateDist::8        13838619     10.02%    100.00% # Number of instructions fetched each cycle (Total)
system.switch_cpus0.fetch.rateDist::overflows            0      0.00%    100.00% # Number of instructions fetched each cycle (Total)
system.switch_cpus0.fetch.rateDist::min_value            0                       # Number of instructions fetched each cycle (Total)
system.switch_cpus0.fetch.rateDist::max_value            8                       # Number of instructions fetched each cycle (Total)
system.switch_cpus0.fetch.rateDist::total    138045525                       # Number of instructions fetched each cycle (Total)
system.switch_cpus0.fetch.branchRate         0.164792                       # Number of branch fetches per cycle
system.switch_cpus0.fetch.rate               0.907147                       # Number of inst fetches per cycle
system.switch_cpus0.decode.IdleCycles       100915719                       # Number of cycles decode is idle
system.switch_cpus0.decode.BlockedCycles      4827862                       # Number of cycles decode is blocked
system.switch_cpus0.decode.RunCycles         27724151                       # Number of cycles decode is running
system.switch_cpus0.decode.UnblockCycles       111005                       # Number of cycles decode is unblocking
system.switch_cpus0.decode.SquashCycles       4466786                       # Number of cycles decode is squashing
system.switch_cpus0.decode.BranchResolved      4040537                       # Number of times decode resolved a branch
system.switch_cpus0.decode.BranchMispred        41549                       # Number of times decode detected a branch misprediction
system.switch_cpus0.decode.DecodedInsts     155472017                       # Number of instructions handled by decode
system.switch_cpus0.decode.SquashedInsts        76674                       # Number of squashed instructions handled by decode
system.switch_cpus0.rename.SquashCycles       4466786                       # Number of cycles rename is squashing
system.switch_cpus0.rename.IdleCycles       101770927                       # Number of cycles rename is idle
system.switch_cpus0.rename.BlockCycles        1341880                       # Number of cycles rename is blocking
system.switch_cpus0.rename.serializeStallCycles      2027681                       # count of cycles rename stalled for serializing inst
system.switch_cpus0.rename.RunCycles         26970692                       # Number of cycles rename is running
system.switch_cpus0.rename.UnblockCycles      1467557                       # Number of cycles rename is unblocking
system.switch_cpus0.rename.RenamedInsts     153878622                       # Number of instructions processed by rename
system.switch_cpus0.rename.ROBFullEvents        22398                       # Number of times rename has blocked due to ROB full
system.switch_cpus0.rename.IQFullEvents        270262                       # Number of times rename has blocked due to IQ full
system.switch_cpus0.rename.LSQFullEvents       601949                       # Number of times rename has blocked due to LSQ full
system.switch_cpus0.rename.FullRegisterEvents       164078                       # Number of times there has been no free registers
system.switch_cpus0.rename.RenamedOperands    216197037                       # Number of destination operands rename has renamed
system.switch_cpus0.rename.RenameLookups    716713086                       # Number of register rename lookups that rename has made
system.switch_cpus0.rename.int_rename_lookups    716713086                       # Number of integer rename lookups
system.switch_cpus0.rename.CommittedMaps    170695504                       # Number of HB maps that are committed
system.switch_cpus0.rename.UndoneMaps        45501527                       # Number of HB maps that are undone due to squashing
system.switch_cpus0.rename.serializingInsts        37456                       # count of serializing insts renamed
system.switch_cpus0.rename.tempSerializingInsts        20921                       # count of temporary serializing insts renamed
system.switch_cpus0.rename.skidInsts          4977734                       # count of insts added to the skid buffer
system.switch_cpus0.memDep0.insertedLoads     14839903                       # Number of loads inserted to the mem dependence unit.
system.switch_cpus0.memDep0.insertedStores      7246603                       # Number of stores inserted to the mem dependence unit.
system.switch_cpus0.memDep0.conflictingLoads       122651                       # Number of conflicting loads.
system.switch_cpus0.memDep0.conflictingStores      1607869                       # Number of conflicting stores.
system.switch_cpus0.iq.iqInstsAdded         151151316                       # Number of instructions added to the IQ (excludes non-spec)
system.switch_cpus0.iq.iqNonSpecInstsAdded        37433                       # Number of non-speculative instructions added to the IQ
system.switch_cpus0.iq.iqInstsIssued        140416245                       # Number of instructions issued
system.switch_cpus0.iq.iqSquashedInstsIssued       189706                       # Number of squashed instructions issued
system.switch_cpus0.iq.iqSquashedInstsExamined     27545343                       # Number of squashed instructions iterated over during squash; mainly for profiling
system.switch_cpus0.iq.iqSquashedOperandsExamined     59676700                       # Number of squashed operands that are examined and possibly removed from graph
system.switch_cpus0.iq.iqSquashedNonSpecRemoved         4365                       # Number of squashed non-spec instructions that were removed
system.switch_cpus0.iq.issued_per_cycle::samples    138045525                       # Number of insts issued each cycle
system.switch_cpus0.iq.issued_per_cycle::mean     1.017173                       # Number of insts issued each cycle
system.switch_cpus0.iq.issued_per_cycle::stdev     1.564702                       # Number of insts issued each cycle
system.switch_cpus0.iq.issued_per_cycle::underflows            0      0.00%      0.00% # Number of insts issued each cycle
system.switch_cpus0.iq.issued_per_cycle::0     79237590     57.40%     57.40% # Number of insts issued each cycle
system.switch_cpus0.iq.issued_per_cycle::1     24712160     17.90%     75.30% # Number of insts issued each cycle
system.switch_cpus0.iq.issued_per_cycle::2     11547921      8.37%     83.67% # Number of insts issued each cycle
system.switch_cpus0.iq.issued_per_cycle::3      8462344      6.13%     89.80% # Number of insts issued each cycle
system.switch_cpus0.iq.issued_per_cycle::4      7530141      5.45%     95.25% # Number of insts issued each cycle
system.switch_cpus0.iq.issued_per_cycle::5      2988025      2.16%     97.42% # Number of insts issued each cycle
system.switch_cpus0.iq.issued_per_cycle::6      2959580      2.14%     99.56% # Number of insts issued each cycle
system.switch_cpus0.iq.issued_per_cycle::7       459070      0.33%     99.89% # Number of insts issued each cycle
system.switch_cpus0.iq.issued_per_cycle::8       148694      0.11%    100.00% # Number of insts issued each cycle
system.switch_cpus0.iq.issued_per_cycle::overflows            0      0.00%    100.00% # Number of insts issued each cycle
system.switch_cpus0.iq.issued_per_cycle::min_value            0                       # Number of insts issued each cycle
system.switch_cpus0.iq.issued_per_cycle::max_value            8                       # Number of insts issued each cycle
system.switch_cpus0.iq.issued_per_cycle::total    138045525                       # Number of insts issued each cycle
system.switch_cpus0.iq.fu_full::No_OpClass            0      0.00%      0.00% # attempts to use FU when none available
system.switch_cpus0.iq.fu_full::IntAlu         563998     68.84%     68.84% # attempts to use FU when none available
system.switch_cpus0.iq.fu_full::IntMult             0      0.00%     68.84% # attempts to use FU when none available
system.switch_cpus0.iq.fu_full::IntDiv              0      0.00%     68.84% # attempts to use FU when none available
system.switch_cpus0.iq.fu_full::FloatAdd            0      0.00%     68.84% # attempts to use FU when none available
system.switch_cpus0.iq.fu_full::FloatCmp            0      0.00%     68.84% # attempts to use FU when none available
system.switch_cpus0.iq.fu_full::FloatCvt            0      0.00%     68.84% # attempts to use FU when none available
system.switch_cpus0.iq.fu_full::FloatMult            0      0.00%     68.84% # attempts to use FU when none available
system.switch_cpus0.iq.fu_full::FloatDiv            0      0.00%     68.84% # attempts to use FU when none available
system.switch_cpus0.iq.fu_full::FloatSqrt            0      0.00%     68.84% # attempts to use FU when none available
system.switch_cpus0.iq.fu_full::SimdAdd             0      0.00%     68.84% # attempts to use FU when none available
system.switch_cpus0.iq.fu_full::SimdAddAcc            0      0.00%     68.84% # attempts to use FU when none available
system.switch_cpus0.iq.fu_full::SimdAlu             0      0.00%     68.84% # attempts to use FU when none available
system.switch_cpus0.iq.fu_full::SimdCmp             0      0.00%     68.84% # attempts to use FU when none available
system.switch_cpus0.iq.fu_full::SimdCvt             0      0.00%     68.84% # attempts to use FU when none available
system.switch_cpus0.iq.fu_full::SimdMisc            0      0.00%     68.84% # attempts to use FU when none available
system.switch_cpus0.iq.fu_full::SimdMult            0      0.00%     68.84% # attempts to use FU when none available
system.switch_cpus0.iq.fu_full::SimdMultAcc            0      0.00%     68.84% # attempts to use FU when none available
system.switch_cpus0.iq.fu_full::SimdShift            0      0.00%     68.84% # attempts to use FU when none available
system.switch_cpus0.iq.fu_full::SimdShiftAcc            0      0.00%     68.84% # attempts to use FU when none available
system.switch_cpus0.iq.fu_full::SimdSqrt            0      0.00%     68.84% # attempts to use FU when none available
system.switch_cpus0.iq.fu_full::SimdFloatAdd            0      0.00%     68.84% # attempts to use FU when none available
system.switch_cpus0.iq.fu_full::SimdFloatAlu            0      0.00%     68.84% # attempts to use FU when none available
system.switch_cpus0.iq.fu_full::SimdFloatCmp            0      0.00%     68.84% # attempts to use FU when none available
system.switch_cpus0.iq.fu_full::SimdFloatCvt            0      0.00%     68.84% # attempts to use FU when none available
system.switch_cpus0.iq.fu_full::SimdFloatDiv            0      0.00%     68.84% # attempts to use FU when none available
system.switch_cpus0.iq.fu_full::SimdFloatMisc            0      0.00%     68.84% # attempts to use FU when none available
system.switch_cpus0.iq.fu_full::SimdFloatMult            0      0.00%     68.84% # attempts to use FU when none available
system.switch_cpus0.iq.fu_full::SimdFloatMultAcc            0      0.00%     68.84% # attempts to use FU when none available
system.switch_cpus0.iq.fu_full::SimdFloatSqrt            0      0.00%     68.84% # attempts to use FU when none available
system.switch_cpus0.iq.fu_full::MemRead        113279     13.83%     82.67% # attempts to use FU when none available
system.switch_cpus0.iq.fu_full::MemWrite       142015     17.33%    100.00% # attempts to use FU when none available
system.switch_cpus0.iq.fu_full::IprAccess            0      0.00%    100.00% # attempts to use FU when none available
system.switch_cpus0.iq.fu_full::InstPrefetch            0      0.00%    100.00% # attempts to use FU when none available
system.switch_cpus0.iq.FU_type_0::No_OpClass            0      0.00%      0.00% # Type of FU issued
system.switch_cpus0.iq.FU_type_0::IntAlu    117855020     83.93%     83.93% # Type of FU issued
system.switch_cpus0.iq.FU_type_0::IntMult      2111194      1.50%     85.44% # Type of FU issued
system.switch_cpus0.iq.FU_type_0::IntDiv            0      0.00%     85.44% # Type of FU issued
system.switch_cpus0.iq.FU_type_0::FloatAdd            0      0.00%     85.44% # Type of FU issued
system.switch_cpus0.iq.FU_type_0::FloatCmp            0      0.00%     85.44% # Type of FU issued
system.switch_cpus0.iq.FU_type_0::FloatCvt            0      0.00%     85.44% # Type of FU issued
system.switch_cpus0.iq.FU_type_0::FloatMult            0      0.00%     85.44% # Type of FU issued
system.switch_cpus0.iq.FU_type_0::FloatDiv            0      0.00%     85.44% # Type of FU issued
system.switch_cpus0.iq.FU_type_0::FloatSqrt            0      0.00%     85.44% # Type of FU issued
system.switch_cpus0.iq.FU_type_0::SimdAdd            0      0.00%     85.44% # Type of FU issued
system.switch_cpus0.iq.FU_type_0::SimdAddAcc            0      0.00%     85.44% # Type of FU issued
system.switch_cpus0.iq.FU_type_0::SimdAlu            0      0.00%     85.44% # Type of FU issued
system.switch_cpus0.iq.FU_type_0::SimdCmp            0      0.00%     85.44% # Type of FU issued
system.switch_cpus0.iq.FU_type_0::SimdCvt            0      0.00%     85.44% # Type of FU issued
system.switch_cpus0.iq.FU_type_0::SimdMisc            0      0.00%     85.44% # Type of FU issued
system.switch_cpus0.iq.FU_type_0::SimdMult            0      0.00%     85.44% # Type of FU issued
system.switch_cpus0.iq.FU_type_0::SimdMultAcc            0      0.00%     85.44% # Type of FU issued
system.switch_cpus0.iq.FU_type_0::SimdShift            0      0.00%     85.44% # Type of FU issued
system.switch_cpus0.iq.FU_type_0::SimdShiftAcc            0      0.00%     85.44% # Type of FU issued
system.switch_cpus0.iq.FU_type_0::SimdSqrt            0      0.00%     85.44% # Type of FU issued
system.switch_cpus0.iq.FU_type_0::SimdFloatAdd            0      0.00%     85.44% # Type of FU issued
system.switch_cpus0.iq.FU_type_0::SimdFloatAlu            0      0.00%     85.44% # Type of FU issued
system.switch_cpus0.iq.FU_type_0::SimdFloatCmp            0      0.00%     85.44% # Type of FU issued
system.switch_cpus0.iq.FU_type_0::SimdFloatCvt            0      0.00%     85.44% # Type of FU issued
system.switch_cpus0.iq.FU_type_0::SimdFloatDiv            0      0.00%     85.44% # Type of FU issued
system.switch_cpus0.iq.FU_type_0::SimdFloatMisc        16534      0.01%     85.45% # Type of FU issued
system.switch_cpus0.iq.FU_type_0::SimdFloatMult            0      0.00%     85.45% # Type of FU issued
system.switch_cpus0.iq.FU_type_0::SimdFloatMultAcc            0      0.00%     85.45% # Type of FU issued
system.switch_cpus0.iq.FU_type_0::SimdFloatSqrt            0      0.00%     85.45% # Type of FU issued
system.switch_cpus0.iq.FU_type_0::MemRead     13256065      9.44%     94.89% # Type of FU issued
system.switch_cpus0.iq.FU_type_0::MemWrite      7177432      5.11%    100.00% # Type of FU issued
system.switch_cpus0.iq.FU_type_0::IprAccess            0      0.00%    100.00% # Type of FU issued
system.switch_cpus0.iq.FU_type_0::InstPrefetch            0      0.00%    100.00% # Type of FU issued
system.switch_cpus0.iq.FU_type_0::total     140416245                       # Type of FU issued
system.switch_cpus0.iq.rate                  0.988278                       # Inst issue rate
system.switch_cpus0.iq.fu_busy_cnt             819292                       # FU busy when requested
system.switch_cpus0.iq.fu_busy_rate          0.005835                       # FU busy rate (busy events/executed inst)
system.switch_cpus0.iq.int_inst_queue_reads    419887013                       # Number of integer instruction queue reads
system.switch_cpus0.iq.int_inst_queue_writes    178734506                       # Number of integer instruction queue writes
system.switch_cpus0.iq.int_inst_queue_wakeup_accesses    136886904                       # Number of integer instruction queue wakeup accesses
system.switch_cpus0.iq.fp_inst_queue_reads            0                       # Number of floating instruction queue reads
system.switch_cpus0.iq.fp_inst_queue_writes            0                       # Number of floating instruction queue writes
system.switch_cpus0.iq.fp_inst_queue_wakeup_accesses            0                       # Number of floating instruction queue wakeup accesses
system.switch_cpus0.iq.int_alu_accesses     141235537                       # Number of integer alu accesses
system.switch_cpus0.iq.fp_alu_accesses              0                       # Number of floating point alu accesses
system.switch_cpus0.iew.lsq.thread0.forwLoads       345112                       # Number of loads that had data forwarded from stores
system.switch_cpus0.iew.lsq.thread0.invAddrLoads            0                       # Number of loads ignored due to an invalid address
system.switch_cpus0.iew.lsq.thread0.squashedLoads      3605935                       # Number of loads squashed
system.switch_cpus0.iew.lsq.thread0.ignoredResponses         1023                       # Number of memory responses ignored because the instruction is squashed
system.switch_cpus0.iew.lsq.thread0.memOrderViolation          414                       # Number of memory ordering violations
system.switch_cpus0.iew.lsq.thread0.squashedStores       220830                       # Number of stores squashed
system.switch_cpus0.iew.lsq.thread0.invAddrSwpfs            0                       # Number of software prefetches ignored due to an invalid address
system.switch_cpus0.iew.lsq.thread0.blockedLoads            0                       # Number of blocked loads due to partial load-store forwarding
system.switch_cpus0.iew.lsq.thread0.rescheduledLoads            0                       # Number of loads that were rescheduled
system.switch_cpus0.iew.lsq.thread0.cacheBlocked            0                       # Number of times an access to memory failed due to the cache being blocked
system.switch_cpus0.iew.iewIdleCycles               0                       # Number of cycles IEW is idle
system.switch_cpus0.iew.iewSquashCycles       4466786                       # Number of cycles IEW is squashing
system.switch_cpus0.iew.iewBlockCycles         831445                       # Number of cycles IEW is blocking
system.switch_cpus0.iew.iewUnblockCycles        91922                       # Number of cycles IEW is unblocking
system.switch_cpus0.iew.iewDispatchedInsts    151188749                       # Number of instructions dispatched to IQ
system.switch_cpus0.iew.iewDispSquashedInsts        48545                       # Number of squashed instructions skipped by dispatch
system.switch_cpus0.iew.iewDispLoadInsts     14839903                       # Number of dispatched load instructions
system.switch_cpus0.iew.iewDispStoreInsts      7246603                       # Number of dispatched store instructions
system.switch_cpus0.iew.iewDispNonSpecInsts        20899                       # Number of dispatched non-speculative instructions
system.switch_cpus0.iew.iewIQFullEvents         80249                       # Number of times the IQ has become full, causing a stall
system.switch_cpus0.iew.iewLSQFullEvents            1                       # Number of times the LSQ has become full, causing a stall
system.switch_cpus0.iew.memOrderViolationEvents          414                       # Number of memory order violations
system.switch_cpus0.iew.predictedTakenIncorrect      1103324                       # Number of branches that were predicted taken incorrectly
system.switch_cpus0.iew.predictedNotTakenIncorrect      1155614                       # Number of branches that were predicted not taken incorrectly
system.switch_cpus0.iew.branchMispredicts      2258938                       # Number of branch mispredicts detected at execute
system.switch_cpus0.iew.iewExecutedInsts    137888857                       # Number of executed instructions
system.switch_cpus0.iew.iewExecLoadInsts     12740839                       # Number of load instructions executed
system.switch_cpus0.iew.iewExecSquashedInsts      2527388                       # Number of squashed instructions skipped in execute
system.switch_cpus0.iew.exec_swp                    0                       # number of swp insts executed
system.switch_cpus0.iew.exec_nop                    0                       # number of nop insts executed
system.switch_cpus0.iew.exec_refs            19916532                       # number of memory reference insts executed
system.switch_cpus0.iew.exec_branches        19585317                       # Number of branches executed
system.switch_cpus0.iew.exec_stores           7175693                       # Number of stores executed
system.switch_cpus0.iew.exec_rate            0.970490                       # Inst execution rate
system.switch_cpus0.iew.wb_sent             137066811                       # cumulative count of insts sent to commit
system.switch_cpus0.iew.wb_count            136886904                       # cumulative count of insts written-back
system.switch_cpus0.iew.wb_producers         82105043                       # num instructions producing a value
system.switch_cpus0.iew.wb_consumers        227456269                       # num instructions consuming a value
system.switch_cpus0.iew.wb_penalized                0                       # number of instrctions required to write to 'other' IQ
system.switch_cpus0.iew.wb_rate              0.963438                       # insts written-back per cycle
system.switch_cpus0.iew.wb_fanout            0.360971                       # average fanout of values written-back
system.switch_cpus0.iew.wb_penalized_rate            0                       # fraction of instructions written-back that wrote to 'other' IQ
system.switch_cpus0.commit.commitCommittedInsts    100000001                       # The number of committed instructions
system.switch_cpus0.commit.commitCommittedOps    122809435                       # The number of committed instructions
system.switch_cpus0.commit.commitSquashedInsts     28380895                       # The number of squashed insts skipped by commit
system.switch_cpus0.commit.commitNonSpecStalls        33068                       # The number of times commit has been forced to stall to communicate backwards
system.switch_cpus0.commit.branchMispredicts      2030886                       # The number of times a branch was mispredicted
system.switch_cpus0.commit.committed_per_cycle::samples    133578739                       # Number of insts commited each cycle
system.switch_cpus0.commit.committed_per_cycle::mean     0.919379                       # Number of insts commited each cycle
system.switch_cpus0.commit.committed_per_cycle::stdev     1.692707                       # Number of insts commited each cycle
system.switch_cpus0.commit.committed_per_cycle::underflows            0      0.00%      0.00% # Number of insts commited each cycle
system.switch_cpus0.commit.committed_per_cycle::0     83210834     62.29%     62.29% # Number of insts commited each cycle
system.switch_cpus0.commit.committed_per_cycle::1     23561758     17.64%     79.93% # Number of insts commited each cycle
system.switch_cpus0.commit.committed_per_cycle::2     10384437      7.77%     87.71% # Number of insts commited each cycle
system.switch_cpus0.commit.committed_per_cycle::3      5446953      4.08%     91.78% # Number of insts commited each cycle
system.switch_cpus0.commit.committed_per_cycle::4      4335631      3.25%     95.03% # Number of insts commited each cycle
system.switch_cpus0.commit.committed_per_cycle::5      1561690      1.17%     96.20% # Number of insts commited each cycle
system.switch_cpus0.commit.committed_per_cycle::6      1321644      0.99%     97.19% # Number of insts commited each cycle
system.switch_cpus0.commit.committed_per_cycle::7       989230      0.74%     97.93% # Number of insts commited each cycle
system.switch_cpus0.commit.committed_per_cycle::8      2766562      2.07%    100.00% # Number of insts commited each cycle
system.switch_cpus0.commit.committed_per_cycle::overflows            0      0.00%    100.00% # Number of insts commited each cycle
system.switch_cpus0.commit.committed_per_cycle::min_value            0                       # Number of insts commited each cycle
system.switch_cpus0.commit.committed_per_cycle::max_value            8                       # Number of insts commited each cycle
system.switch_cpus0.commit.committed_per_cycle::total    133578739                       # Number of insts commited each cycle
system.switch_cpus0.commit.committedInsts    100000001                       # Number of instructions committed
system.switch_cpus0.commit.committedOps     122809435                       # Number of ops (including micro ops) committed
system.switch_cpus0.commit.swp_count                0                       # Number of s/w prefetches committed
system.switch_cpus0.commit.refs              18259741                       # Number of memory references committed
system.switch_cpus0.commit.loads             11233968                       # Number of loads committed
system.switch_cpus0.commit.membars              16534                       # Number of memory barriers committed
system.switch_cpus0.commit.branches          17645481                       # Number of branches committed
system.switch_cpus0.commit.fp_insts                 0                       # Number of committed floating point instructions.
system.switch_cpus0.commit.int_insts        110655596                       # Number of committed integer instructions.
system.switch_cpus0.commit.function_calls      2500197                       # Number of function calls committed.
system.switch_cpus0.commit.bw_lim_events      2766562                       # number cycles where commit BW limit reached
system.switch_cpus0.commit.bw_limited               0                       # number of insts not committed due to BW limits
system.switch_cpus0.rob.rob_reads           282002507                       # The number of ROB reads
system.switch_cpus0.rob.rob_writes          306847694                       # The number of ROB writes
system.switch_cpus0.timesIdled                  70514                       # Number of times that the entire CPU went into an idle state and unscheduled itself
system.switch_cpus0.idleCycles                4036132                       # Total number of cycles that the CPU has spent unscheduled due to idling
system.switch_cpus0.committedInsts          100000001                       # Number of Instructions Simulated
system.switch_cpus0.committedOps            122809435                       # Number of Ops (including micro ops) Simulated
system.switch_cpus0.committedInsts_total    100000001                       # Number of Instructions Simulated
system.switch_cpus0.cpi                      1.420817                       # CPI: Cycles Per Instruction
system.switch_cpus0.cpi_total                1.420817                       # CPI: Total CPI of All Threads
system.switch_cpus0.ipc                      0.703821                       # IPC: Instructions Per Cycle
system.switch_cpus0.ipc_total                0.703821                       # IPC: Total IPC of All Threads
system.switch_cpus0.int_regfile_reads       621779608                       # number of integer regfile reads
system.switch_cpus0.int_regfile_writes      190671692                       # number of integer regfile writes
system.switch_cpus0.misc_regfile_reads      145458456                       # number of misc regfile reads
system.switch_cpus0.misc_regfile_writes         33068                       # number of misc regfile writes
system.switch_cpus1.dtb.inst_hits                   0                       # ITB inst hits
system.switch_cpus1.dtb.inst_misses                 0                       # ITB inst misses
system.switch_cpus1.dtb.read_hits                   0                       # DTB read hits
system.switch_cpus1.dtb.read_misses                 0                       # DTB read misses
system.switch_cpus1.dtb.write_hits                  0                       # DTB write hits
system.switch_cpus1.dtb.write_misses                0                       # DTB write misses
system.switch_cpus1.dtb.flush_tlb                   0                       # Number of times complete TLB was flushed
system.switch_cpus1.dtb.flush_tlb_mva               0                       # Number of times TLB was flushed by MVA
system.switch_cpus1.dtb.flush_tlb_mva_asid            0                       # Number of times TLB was flushed by MVA & ASID
system.switch_cpus1.dtb.flush_tlb_asid              0                       # Number of times TLB was flushed by ASID
system.switch_cpus1.dtb.flush_entries               0                       # Number of entries that have been flushed from TLB
system.switch_cpus1.dtb.align_faults                0                       # Number of TLB faults due to alignment restrictions
system.switch_cpus1.dtb.prefetch_faults             0                       # Number of TLB faults due to prefetch
system.switch_cpus1.dtb.domain_faults               0                       # Number of TLB faults due to domain restrictions
system.switch_cpus1.dtb.perms_faults                0                       # Number of TLB faults due to permissions restrictions
system.switch_cpus1.dtb.read_accesses               0                       # DTB read accesses
system.switch_cpus1.dtb.write_accesses              0                       # DTB write accesses
system.switch_cpus1.dtb.inst_accesses               0                       # ITB inst accesses
system.switch_cpus1.dtb.hits                        0                       # DTB hits
system.switch_cpus1.dtb.misses                      0                       # DTB misses
system.switch_cpus1.dtb.accesses                    0                       # DTB accesses
system.switch_cpus1.itb.inst_hits                   0                       # ITB inst hits
system.switch_cpus1.itb.inst_misses                 0                       # ITB inst misses
system.switch_cpus1.itb.read_hits                   0                       # DTB read hits
system.switch_cpus1.itb.read_misses                 0                       # DTB read misses
system.switch_cpus1.itb.write_hits                  0                       # DTB write hits
system.switch_cpus1.itb.write_misses                0                       # DTB write misses
system.switch_cpus1.itb.flush_tlb                   0                       # Number of times complete TLB was flushed
system.switch_cpus1.itb.flush_tlb_mva               0                       # Number of times TLB was flushed by MVA
system.switch_cpus1.itb.flush_tlb_mva_asid            0                       # Number of times TLB was flushed by MVA & ASID
system.switch_cpus1.itb.flush_tlb_asid              0                       # Number of times TLB was flushed by ASID
system.switch_cpus1.itb.flush_entries               0                       # Number of entries that have been flushed from TLB
system.switch_cpus1.itb.align_faults                0                       # Number of TLB faults due to alignment restrictions
system.switch_cpus1.itb.prefetch_faults             0                       # Number of TLB faults due to prefetch
system.switch_cpus1.itb.domain_faults               0                       # Number of TLB faults due to domain restrictions
system.switch_cpus1.itb.perms_faults                0                       # Number of TLB faults due to permissions restrictions
system.switch_cpus1.itb.read_accesses               0                       # DTB read accesses
system.switch_cpus1.itb.write_accesses              0                       # DTB write accesses
system.switch_cpus1.itb.inst_accesses               0                       # ITB inst accesses
system.switch_cpus1.itb.hits                        0                       # DTB hits
system.switch_cpus1.itb.misses                      0                       # DTB misses
system.switch_cpus1.itb.accesses                    0                       # DTB accesses
system.cpu1.workload.num_syscalls                   0                       # Number of system calls
system.switch_cpus1.numCycles               142081657                       # number of cpu cycles simulated
system.switch_cpus1.numWorkItemsStarted             0                       # number of work items this cpu started
system.switch_cpus1.numWorkItemsCompleted            0                       # number of work items this cpu completed
system.switch_cpus1.BPredUnit.lookups        22841365                       # Number of BP lookups
system.switch_cpus1.BPredUnit.condPredicted     18822947                       # Number of conditional branches predicted
system.switch_cpus1.BPredUnit.condIncorrect      1895766                       # Number of conditional branches incorrect
system.switch_cpus1.BPredUnit.BTBLookups      8803614                       # Number of BTB lookups
system.switch_cpus1.BPredUnit.BTBHits         8509565                       # Number of BTB hits
system.switch_cpus1.BPredUnit.BTBCorrect            0                       # Number of correct BTB predictions (this stat may not work properly.
system.switch_cpus1.BPredUnit.usedRAS         2394100                       # Number of times the RAS was used to get a target.
system.switch_cpus1.BPredUnit.RASInCorrect        85677                       # Number of incorrect RAS predictions.
system.switch_cpus1.fetch.icacheStallCycles    102551172                       # Number of cycles fetch is stalled on an Icache miss
system.switch_cpus1.fetch.Insts             126056256                       # Number of instructions fetch has processed
system.switch_cpus1.fetch.Branches           22841365                       # Number of branches that fetch encountered
system.switch_cpus1.fetch.predictedBranches     10903665                       # Number of branches that fetch has predicted taken
system.switch_cpus1.fetch.Cycles             26768291                       # Number of cycles fetch has run and was not squashing or blocked
system.switch_cpus1.fetch.SquashCycles        6124950                       # Number of cycles fetch has spent squashing
system.switch_cpus1.fetch.BlockedCycles       5737150                       # Number of cycles fetch has spent blocked
system.switch_cpus1.fetch.PendingTrapStallCycles            6                       # Number of stall cycles due to pending traps
system.switch_cpus1.fetch.CacheLines         11883529                       # Number of cache lines fetched
system.switch_cpus1.fetch.IcacheSquashes      1542943                       # Number of outstanding Icache misses that were squashed
system.switch_cpus1.fetch.rateDist::samples    139257354                       # Number of instructions fetched each cycle (Total)
system.switch_cpus1.fetch.rateDist::mean     1.103085                       # Number of instructions fetched each cycle (Total)
system.switch_cpus1.fetch.rateDist::stdev     2.545732                       # Number of instructions fetched each cycle (Total)
system.switch_cpus1.fetch.rateDist::underflows            0      0.00%      0.00% # Number of instructions fetched each cycle (Total)
system.switch_cpus1.fetch.rateDist::0       112489063     80.78%     80.78% # Number of instructions fetched each cycle (Total)
system.switch_cpus1.fetch.rateDist::1         2743930      1.97%     82.75% # Number of instructions fetched each cycle (Total)
system.switch_cpus1.fetch.rateDist::2         2335458      1.68%     84.43% # Number of instructions fetched each cycle (Total)
system.switch_cpus1.fetch.rateDist::3         2335236      1.68%     86.10% # Number of instructions fetched each cycle (Total)
system.switch_cpus1.fetch.rateDist::4         2227965      1.60%     87.70% # Number of instructions fetched each cycle (Total)
system.switch_cpus1.fetch.rateDist::5         1085535      0.78%     88.48% # Number of instructions fetched each cycle (Total)
system.switch_cpus1.fetch.rateDist::6          756098      0.54%     89.02% # Number of instructions fetched each cycle (Total)
system.switch_cpus1.fetch.rateDist::7         1956553      1.40%     90.43% # Number of instructions fetched each cycle (Total)
system.switch_cpus1.fetch.rateDist::8        13327516      9.57%    100.00% # Number of instructions fetched each cycle (Total)
system.switch_cpus1.fetch.rateDist::overflows            0      0.00%    100.00% # Number of instructions fetched each cycle (Total)
system.switch_cpus1.fetch.rateDist::min_value            0                       # Number of instructions fetched each cycle (Total)
system.switch_cpus1.fetch.rateDist::max_value            8                       # Number of instructions fetched each cycle (Total)
system.switch_cpus1.fetch.rateDist::total    139257354                       # Number of instructions fetched each cycle (Total)
system.switch_cpus1.fetch.branchRate         0.160762                       # Number of branch fetches per cycle
system.switch_cpus1.fetch.rate               0.887210                       # Number of inst fetches per cycle
system.switch_cpus1.decode.IdleCycles       101430827                       # Number of cycles decode is idle
system.switch_cpus1.decode.BlockedCycles      7097776                       # Number of cycles decode is blocked
system.switch_cpus1.decode.RunCycles         26424544                       # Number of cycles decode is running
system.switch_cpus1.decode.UnblockCycles       109835                       # Number of cycles decode is unblocking
system.switch_cpus1.decode.SquashCycles       4194371                       # Number of cycles decode is squashing
system.switch_cpus1.decode.BranchResolved      3669269                       # Number of times decode resolved a branch
system.switch_cpus1.decode.BranchMispred         6367                       # Number of times decode detected a branch misprediction
system.switch_cpus1.decode.DecodedInsts     152119227                       # Number of instructions handled by decode
system.switch_cpus1.decode.SquashedInsts        50358                       # Number of squashed instructions handled by decode
system.switch_cpus1.rename.SquashCycles       4194371                       # Number of cycles rename is squashing
system.switch_cpus1.rename.IdleCycles       101940076                       # Number of cycles rename is idle
system.switch_cpus1.rename.BlockCycles        4692856                       # Number of cycles rename is blocking
system.switch_cpus1.rename.serializeStallCycles      1262419                       # count of cycles rename stalled for serializing inst
system.switch_cpus1.rename.RunCycles         26012150                       # Number of cycles rename is running
system.switch_cpus1.rename.UnblockCycles      1155481                       # Number of cycles rename is unblocking
system.switch_cpus1.rename.RenamedInsts     150708556                       # Number of instructions processed by rename
system.switch_cpus1.rename.ROBFullEvents          486                       # Number of times rename has blocked due to ROB full
system.switch_cpus1.rename.IQFullEvents        410876                       # Number of times rename has blocked due to IQ full
system.switch_cpus1.rename.LSQFullEvents       605006                       # Number of times rename has blocked due to LSQ full
system.switch_cpus1.rename.FullRegisterEvents         4895                       # Number of times there has been no free registers
system.switch_cpus1.rename.RenamedOperands    210855445                       # Number of destination operands rename has renamed
system.switch_cpus1.rename.RenameLookups    702367626                       # Number of register rename lookups that rename has made
system.switch_cpus1.rename.int_rename_lookups    702367626                       # Number of integer rename lookups
system.switch_cpus1.rename.CommittedMaps    165819748                       # Number of HB maps that are committed
system.switch_cpus1.rename.UndoneMaps        45035653                       # Number of HB maps that are undone due to squashing
system.switch_cpus1.rename.serializingInsts        32013                       # count of serializing insts renamed
system.switch_cpus1.rename.tempSerializingInsts        16223                       # count of temporary serializing insts renamed
system.switch_cpus1.rename.skidInsts          3771910                       # count of insts added to the skid buffer
system.switch_cpus1.memDep0.insertedLoads     14970664                       # Number of loads inserted to the mem dependence unit.
system.switch_cpus1.memDep0.insertedStores      7780283                       # Number of stores inserted to the mem dependence unit.
system.switch_cpus1.memDep0.conflictingLoads       307292                       # Number of conflicting loads.
system.switch_cpus1.memDep0.conflictingStores      1708574                       # Number of conflicting stores.
system.switch_cpus1.iq.iqInstsAdded         146856457                       # Number of instructions added to the IQ (excludes non-spec)
system.switch_cpus1.iq.iqNonSpecInstsAdded        32013                       # Number of non-speculative instructions added to the IQ
system.switch_cpus1.iq.iqInstsIssued        136957887                       # Number of instructions issued
system.switch_cpus1.iq.iqSquashedInstsIssued       104165                       # Number of squashed instructions issued
system.switch_cpus1.iq.iqSquashedInstsExamined     24747386                       # Number of squashed instructions iterated over during squash; mainly for profiling
system.switch_cpus1.iq.iqSquashedOperandsExamined     56727435                       # Number of squashed operands that are examined and possibly removed from graph
system.switch_cpus1.iq.iqSquashedNonSpecRemoved          433                       # Number of squashed non-spec instructions that were removed
system.switch_cpus1.iq.issued_per_cycle::samples    139257354                       # Number of insts issued each cycle
system.switch_cpus1.iq.issued_per_cycle::mean     0.983488                       # Number of insts issued each cycle
system.switch_cpus1.iq.issued_per_cycle::stdev     1.582918                       # Number of insts issued each cycle
system.switch_cpus1.iq.issued_per_cycle::underflows            0      0.00%      0.00% # Number of insts issued each cycle
system.switch_cpus1.iq.issued_per_cycle::0     82844039     59.49%     59.49% # Number of insts issued each cycle
system.switch_cpus1.iq.issued_per_cycle::1     23314947     16.74%     76.23% # Number of insts issued each cycle
system.switch_cpus1.iq.issued_per_cycle::2     11723416      8.42%     84.65% # Number of insts issued each cycle
system.switch_cpus1.iq.issued_per_cycle::3      7685479      5.52%     90.17% # Number of insts issued each cycle
system.switch_cpus1.iq.issued_per_cycle::4      6809426      4.89%     95.06% # Number of insts issued each cycle
system.switch_cpus1.iq.issued_per_cycle::5      2670554      1.92%     96.98% # Number of insts issued each cycle
system.switch_cpus1.iq.issued_per_cycle::6      3012292      2.16%     99.14% # Number of insts issued each cycle
system.switch_cpus1.iq.issued_per_cycle::7      1102163      0.79%     99.93% # Number of insts issued each cycle
system.switch_cpus1.iq.issued_per_cycle::8        95038      0.07%    100.00% # Number of insts issued each cycle
system.switch_cpus1.iq.issued_per_cycle::overflows            0      0.00%    100.00% # Number of insts issued each cycle
system.switch_cpus1.iq.issued_per_cycle::min_value            0                       # Number of insts issued each cycle
system.switch_cpus1.iq.issued_per_cycle::max_value            8                       # Number of insts issued each cycle
system.switch_cpus1.iq.issued_per_cycle::total    139257354                       # Number of insts issued each cycle
system.switch_cpus1.iq.fu_full::No_OpClass            0      0.00%      0.00% # attempts to use FU when none available
system.switch_cpus1.iq.fu_full::IntAlu         963803     74.63%     74.63% # attempts to use FU when none available
system.switch_cpus1.iq.fu_full::IntMult             0      0.00%     74.63% # attempts to use FU when none available
system.switch_cpus1.iq.fu_full::IntDiv              0      0.00%     74.63% # attempts to use FU when none available
system.switch_cpus1.iq.fu_full::FloatAdd            0      0.00%     74.63% # attempts to use FU when none available
system.switch_cpus1.iq.fu_full::FloatCmp            0      0.00%     74.63% # attempts to use FU when none available
system.switch_cpus1.iq.fu_full::FloatCvt            0      0.00%     74.63% # attempts to use FU when none available
system.switch_cpus1.iq.fu_full::FloatMult            0      0.00%     74.63% # attempts to use FU when none available
system.switch_cpus1.iq.fu_full::FloatDiv            0      0.00%     74.63% # attempts to use FU when none available
system.switch_cpus1.iq.fu_full::FloatSqrt            0      0.00%     74.63% # attempts to use FU when none available
system.switch_cpus1.iq.fu_full::SimdAdd             0      0.00%     74.63% # attempts to use FU when none available
system.switch_cpus1.iq.fu_full::SimdAddAcc            0      0.00%     74.63% # attempts to use FU when none available
system.switch_cpus1.iq.fu_full::SimdAlu             0      0.00%     74.63% # attempts to use FU when none available
system.switch_cpus1.iq.fu_full::SimdCmp             0      0.00%     74.63% # attempts to use FU when none available
system.switch_cpus1.iq.fu_full::SimdCvt             0      0.00%     74.63% # attempts to use FU when none available
system.switch_cpus1.iq.fu_full::SimdMisc            0      0.00%     74.63% # attempts to use FU when none available
system.switch_cpus1.iq.fu_full::SimdMult            0      0.00%     74.63% # attempts to use FU when none available
system.switch_cpus1.iq.fu_full::SimdMultAcc            0      0.00%     74.63% # attempts to use FU when none available
system.switch_cpus1.iq.fu_full::SimdShift            0      0.00%     74.63% # attempts to use FU when none available
system.switch_cpus1.iq.fu_full::SimdShiftAcc            0      0.00%     74.63% # attempts to use FU when none available
system.switch_cpus1.iq.fu_full::SimdSqrt            0      0.00%     74.63% # attempts to use FU when none available
system.switch_cpus1.iq.fu_full::SimdFloatAdd            0      0.00%     74.63% # attempts to use FU when none available
system.switch_cpus1.iq.fu_full::SimdFloatAlu            0      0.00%     74.63% # attempts to use FU when none available
system.switch_cpus1.iq.fu_full::SimdFloatCmp            0      0.00%     74.63% # attempts to use FU when none available
system.switch_cpus1.iq.fu_full::SimdFloatCvt            0      0.00%     74.63% # attempts to use FU when none available
system.switch_cpus1.iq.fu_full::SimdFloatDiv            0      0.00%     74.63% # attempts to use FU when none available
system.switch_cpus1.iq.fu_full::SimdFloatMisc            0      0.00%     74.63% # attempts to use FU when none available
system.switch_cpus1.iq.fu_full::SimdFloatMult            0      0.00%     74.63% # attempts to use FU when none available
system.switch_cpus1.iq.fu_full::SimdFloatMultAcc            0      0.00%     74.63% # attempts to use FU when none available
system.switch_cpus1.iq.fu_full::SimdFloatSqrt            0      0.00%     74.63% # attempts to use FU when none available
system.switch_cpus1.iq.fu_full::MemRead        157199     12.17%     86.80% # attempts to use FU when none available
system.switch_cpus1.iq.fu_full::MemWrite       170451     13.20%    100.00% # attempts to use FU when none available
system.switch_cpus1.iq.fu_full::IprAccess            0      0.00%    100.00% # attempts to use FU when none available
system.switch_cpus1.iq.fu_full::InstPrefetch            0      0.00%    100.00% # attempts to use FU when none available
system.switch_cpus1.iq.FU_type_0::No_OpClass            0      0.00%      0.00% # Type of FU issued
system.switch_cpus1.iq.FU_type_0::IntAlu    113127216     82.60%     82.60% # Type of FU issued
system.switch_cpus1.iq.FU_type_0::IntMult      1973888      1.44%     84.04% # Type of FU issued
system.switch_cpus1.iq.FU_type_0::IntDiv            0      0.00%     84.04% # Type of FU issued
system.switch_cpus1.iq.FU_type_0::FloatAdd            0      0.00%     84.04% # Type of FU issued
system.switch_cpus1.iq.FU_type_0::FloatCmp            0      0.00%     84.04% # Type of FU issued
system.switch_cpus1.iq.FU_type_0::FloatCvt            0      0.00%     84.04% # Type of FU issued
system.switch_cpus1.iq.FU_type_0::FloatMult            0      0.00%     84.04% # Type of FU issued
system.switch_cpus1.iq.FU_type_0::FloatDiv            0      0.00%     84.04% # Type of FU issued
system.switch_cpus1.iq.FU_type_0::FloatSqrt            0      0.00%     84.04% # Type of FU issued
system.switch_cpus1.iq.FU_type_0::SimdAdd            0      0.00%     84.04% # Type of FU issued
system.switch_cpus1.iq.FU_type_0::SimdAddAcc            0      0.00%     84.04% # Type of FU issued
system.switch_cpus1.iq.FU_type_0::SimdAlu            0      0.00%     84.04% # Type of FU issued
system.switch_cpus1.iq.FU_type_0::SimdCmp            0      0.00%     84.04% # Type of FU issued
system.switch_cpus1.iq.FU_type_0::SimdCvt            0      0.00%     84.04% # Type of FU issued
system.switch_cpus1.iq.FU_type_0::SimdMisc            0      0.00%     84.04% # Type of FU issued
system.switch_cpus1.iq.FU_type_0::SimdMult            0      0.00%     84.04% # Type of FU issued
system.switch_cpus1.iq.FU_type_0::SimdMultAcc            0      0.00%     84.04% # Type of FU issued
system.switch_cpus1.iq.FU_type_0::SimdShift            0      0.00%     84.04% # Type of FU issued
system.switch_cpus1.iq.FU_type_0::SimdShiftAcc            0      0.00%     84.04% # Type of FU issued
system.switch_cpus1.iq.FU_type_0::SimdSqrt            0      0.00%     84.04% # Type of FU issued
system.switch_cpus1.iq.FU_type_0::SimdFloatAdd            0      0.00%     84.04% # Type of FU issued
system.switch_cpus1.iq.FU_type_0::SimdFloatAlu            0      0.00%     84.04% # Type of FU issued
system.switch_cpus1.iq.FU_type_0::SimdFloatCmp            0      0.00%     84.04% # Type of FU issued
system.switch_cpus1.iq.FU_type_0::SimdFloatCvt            0      0.00%     84.04% # Type of FU issued
system.switch_cpus1.iq.FU_type_0::SimdFloatDiv            0      0.00%     84.04% # Type of FU issued
system.switch_cpus1.iq.FU_type_0::SimdFloatMisc        15790      0.01%     84.05% # Type of FU issued
system.switch_cpus1.iq.FU_type_0::SimdFloatMult            0      0.00%     84.05% # Type of FU issued
system.switch_cpus1.iq.FU_type_0::SimdFloatMultAcc            0      0.00%     84.05% # Type of FU issued
system.switch_cpus1.iq.FU_type_0::SimdFloatSqrt            0      0.00%     84.05% # Type of FU issued
system.switch_cpus1.iq.FU_type_0::MemRead     14109623     10.30%     94.35% # Type of FU issued
system.switch_cpus1.iq.FU_type_0::MemWrite      7731370      5.65%    100.00% # Type of FU issued
system.switch_cpus1.iq.FU_type_0::IprAccess            0      0.00%    100.00% # Type of FU issued
system.switch_cpus1.iq.FU_type_0::InstPrefetch            0      0.00%    100.00% # Type of FU issued
system.switch_cpus1.iq.FU_type_0::total     136957887                       # Type of FU issued
system.switch_cpus1.iq.rate                  0.963938                       # Inst issue rate
system.switch_cpus1.iq.fu_busy_cnt            1291453                       # FU busy when requested
system.switch_cpus1.iq.fu_busy_rate          0.009430                       # FU busy rate (busy events/executed inst)
system.switch_cpus1.iq.int_inst_queue_reads    414568742                       # Number of integer instruction queue reads
system.switch_cpus1.iq.int_inst_queue_writes    171636535                       # Number of integer instruction queue writes
system.switch_cpus1.iq.int_inst_queue_wakeup_accesses    132922819                       # Number of integer instruction queue wakeup accesses
system.switch_cpus1.iq.fp_inst_queue_reads            0                       # Number of floating instruction queue reads
system.switch_cpus1.iq.fp_inst_queue_writes            0                       # Number of floating instruction queue writes
system.switch_cpus1.iq.fp_inst_queue_wakeup_accesses            0                       # Number of floating instruction queue wakeup accesses
system.switch_cpus1.iq.int_alu_accesses     138249340                       # Number of integer alu accesses
system.switch_cpus1.iq.fp_alu_accesses              0                       # Number of floating point alu accesses
system.switch_cpus1.iew.lsq.thread0.forwLoads       193459                       # Number of loads that had data forwarded from stores
system.switch_cpus1.iew.lsq.thread0.invAddrLoads            0                       # Number of loads ignored due to an invalid address
system.switch_cpus1.iew.lsq.thread0.squashedLoads      2930603                       # Number of loads squashed
system.switch_cpus1.iew.lsq.thread0.ignoredResponses          848                       # Number of memory responses ignored because the instruction is squashed
system.switch_cpus1.iew.lsq.thread0.memOrderViolation          692                       # Number of memory ordering violations
system.switch_cpus1.iew.lsq.thread0.squashedStores       147035                       # Number of stores squashed
system.switch_cpus1.iew.lsq.thread0.invAddrSwpfs            0                       # Number of software prefetches ignored due to an invalid address
system.switch_cpus1.iew.lsq.thread0.blockedLoads            0                       # Number of blocked loads due to partial load-store forwarding
system.switch_cpus1.iew.lsq.thread0.rescheduledLoads          596                       # Number of loads that were rescheduled
system.switch_cpus1.iew.lsq.thread0.cacheBlocked            0                       # Number of times an access to memory failed due to the cache being blocked
system.switch_cpus1.iew.iewIdleCycles               0                       # Number of cycles IEW is idle
system.switch_cpus1.iew.iewSquashCycles       4194371                       # Number of cycles IEW is squashing
system.switch_cpus1.iew.iewBlockCycles        4000633                       # Number of cycles IEW is blocking
system.switch_cpus1.iew.iewUnblockCycles       272688                       # Number of cycles IEW is unblocking
system.switch_cpus1.iew.iewDispatchedInsts    146888471                       # Number of instructions dispatched to IQ
system.switch_cpus1.iew.iewDispSquashedInsts      1180632                       # Number of squashed instructions skipped by dispatch
system.switch_cpus1.iew.iewDispLoadInsts     14970664                       # Number of dispatched load instructions
system.switch_cpus1.iew.iewDispStoreInsts      7780283                       # Number of dispatched store instructions
system.switch_cpus1.iew.iewDispNonSpecInsts        16223                       # Number of dispatched non-speculative instructions
system.switch_cpus1.iew.iewIQFullEvents        222568                       # Number of times the IQ has become full, causing a stall
system.switch_cpus1.iew.iewLSQFullEvents        12897                       # Number of times the LSQ has become full, causing a stall
system.switch_cpus1.iew.memOrderViolationEvents          692                       # Number of memory order violations
system.switch_cpus1.iew.predictedTakenIncorrect      1118967                       # Number of branches that were predicted taken incorrectly
system.switch_cpus1.iew.predictedNotTakenIncorrect      1072996                       # Number of branches that were predicted not taken incorrectly
system.switch_cpus1.iew.branchMispredicts      2191963                       # Number of branch mispredicts detected at execute
system.switch_cpus1.iew.iewExecutedInsts    134634178                       # Number of executed instructions
system.switch_cpus1.iew.iewExecLoadInsts     13871728                       # Number of load instructions executed
system.switch_cpus1.iew.iewExecSquashedInsts      2323705                       # Number of squashed instructions skipped in execute
system.switch_cpus1.iew.exec_swp                    0                       # number of swp insts executed
system.switch_cpus1.iew.exec_nop                    1                       # number of nop insts executed
system.switch_cpus1.iew.exec_refs            21601769                       # number of memory reference insts executed
system.switch_cpus1.iew.exec_branches        18987841                       # Number of branches executed
system.switch_cpus1.iew.exec_stores           7730041                       # Number of stores executed
system.switch_cpus1.iew.exec_rate            0.947583                       # Inst execution rate
system.switch_cpus1.iew.wb_sent             132928340                       # cumulative count of insts sent to commit
system.switch_cpus1.iew.wb_count            132922819                       # cumulative count of insts written-back
system.switch_cpus1.iew.wb_producers         80172118                       # num instructions producing a value
system.switch_cpus1.iew.wb_consumers        217752809                       # num instructions consuming a value
system.switch_cpus1.iew.wb_penalized                0                       # number of instrctions required to write to 'other' IQ
system.switch_cpus1.iew.wb_rate              0.935538                       # insts written-back per cycle
system.switch_cpus1.iew.wb_fanout            0.368179                       # average fanout of values written-back
system.switch_cpus1.iew.wb_penalized_rate            0                       # fraction of instructions written-back that wrote to 'other' IQ
system.switch_cpus1.commit.commitCommittedInsts     98555914                       # The number of committed instructions
system.switch_cpus1.commit.commitCommittedOps    120652946                       # The number of committed instructions
system.switch_cpus1.commit.commitSquashedInsts     26244432                       # The number of squashed insts skipped by commit
system.switch_cpus1.commit.commitNonSpecStalls        31580                       # The number of times commit has been forced to stall to communicate backwards
system.switch_cpus1.commit.branchMispredicts      1917315                       # The number of times a branch was mispredicted
system.switch_cpus1.commit.committed_per_cycle::samples    135062983                       # Number of insts commited each cycle
system.switch_cpus1.commit.committed_per_cycle::mean     0.893309                       # Number of insts commited each cycle
system.switch_cpus1.commit.committed_per_cycle::stdev     1.710675                       # Number of insts commited each cycle
system.switch_cpus1.commit.committed_per_cycle::underflows            0      0.00%      0.00% # Number of insts commited each cycle
system.switch_cpus1.commit.committed_per_cycle::0     86690532     64.19%     64.19% # Number of insts commited each cycle
system.switch_cpus1.commit.committed_per_cycle::1     22176965     16.42%     80.60% # Number of insts commited each cycle
system.switch_cpus1.commit.committed_per_cycle::2     10634516      7.87%     88.48% # Number of insts commited each cycle
system.switch_cpus1.commit.committed_per_cycle::3      4740863      3.51%     91.99% # Number of insts commited each cycle
system.switch_cpus1.commit.committed_per_cycle::4      3722123      2.76%     94.74% # Number of insts commited each cycle
system.switch_cpus1.commit.committed_per_cycle::5      1509789      1.12%     95.86% # Number of insts commited each cycle
system.switch_cpus1.commit.committed_per_cycle::6      1541659      1.14%     97.00% # Number of insts commited each cycle
system.switch_cpus1.commit.committed_per_cycle::7      1075319      0.80%     97.80% # Number of insts commited each cycle
system.switch_cpus1.commit.committed_per_cycle::8      2971217      2.20%    100.00% # Number of insts commited each cycle
system.switch_cpus1.commit.committed_per_cycle::overflows            0      0.00%    100.00% # Number of insts commited each cycle
system.switch_cpus1.commit.committed_per_cycle::min_value            0                       # Number of insts commited each cycle
system.switch_cpus1.commit.committed_per_cycle::max_value            8                       # Number of insts commited each cycle
system.switch_cpus1.commit.committed_per_cycle::total    135062983                       # Number of insts commited each cycle
system.switch_cpus1.commit.committedInsts     98555914                       # Number of instructions committed
system.switch_cpus1.commit.committedOps     120652946                       # Number of ops (including micro ops) committed
[...]
system.cpu2.icache.ReadReq_miss_latency::total      4412758                       # number of ReadReq miss cycles
system.cpu2.icache.demand_miss_latency::switch_cpus2.inst      4412758                       # number of demand (read+write) miss cycles
system.cpu2.icache.demand_miss_latency::total      4412758                       # number of demand (read+write) miss cycles
system.cpu2.icache.overall_miss_latency::switch_cpus2.inst      4412758                       # number of overall miss cycles
system.cpu2.icache.overall_miss_latency::total      4412758                       # number of overall miss cycles
system.cpu2.icache.ReadReq_accesses::switch_cpus2.inst     12157741                       # number of ReadReq accesses(hits+misses)
system.cpu2.icache.ReadReq_accesses::total     12157741                       # number of ReadReq accesses(hits+misses)
system.cpu2.icache.demand_accesses::switch_cpus2.inst     12157741                       # number of demand (read+write) accesses
system.cpu2.icache.demand_accesses::total     12157741                       # number of demand (read+write) accesses
system.cpu2.icache.overall_accesses::switch_cpus2.inst     12157741                       # number of overall (read+write) accesses
system.cpu2.icache.overall_accesses::total     12157741                       # number of overall (read+write) accesses
system.cpu2.icache.ReadReq_miss_rate::switch_cpus2.inst     0.000001                       # miss rate for ReadReq accesses
system.cpu2.icache.ReadReq_miss_rate::total     0.000001                       # miss rate for ReadReq accesses
system.cpu2.icache.demand_miss_rate::switch_cpus2.inst     0.000001                       # miss rate for demand accesses
system.cpu2.icache.demand_miss_rate::total     0.000001                       # miss rate for demand accesses
system.cpu2.icache.overall_miss_rate::switch_cpus2.inst     0.000001                       # miss rate for overall accesses
system.cpu2.icache.overall_miss_rate::total     0.000001                       # miss rate for overall accesses
system.cpu2.icache.ReadReq_avg_miss_latency::switch_cpus2.inst       259574                       # average ReadReq miss latency
system.cpu2.icache.ReadReq_avg_miss_latency::total       259574                       # average ReadReq miss latency
system.cpu2.icache.demand_avg_miss_latency::switch_cpus2.inst       259574                       # average overall miss latency
system.cpu2.icache.demand_avg_miss_latency::total       259574                       # average overall miss latency
system.cpu2.icache.overall_avg_miss_latency::switch_cpus2.inst       259574                       # average overall miss latency
system.cpu2.icache.overall_avg_miss_latency::total       259574                       # average overall miss latency
system.cpu2.icache.blocked_cycles::no_mshrs            0                       # number of cycles access was blocked
system.cpu2.icache.blocked_cycles::no_targets            0                       # number of cycles access was blocked
system.cpu2.icache.blocked::no_mshrs                0                       # number of cycles access was blocked
system.cpu2.icache.blocked::no_targets              0                       # number of cycles access was blocked
system.cpu2.icache.avg_blocked_cycles::no_mshrs          nan                       # average number of cycles each access was blocked
system.cpu2.icache.avg_blocked_cycles::no_targets          nan                       # average number of cycles each access was blocked
system.cpu2.icache.fast_writes                      0                       # number of fast writes performed
system.cpu2.icache.cache_copies                     0                       # number of cache copies performed
system.cpu2.icache.ReadReq_mshr_hits::switch_cpus2.inst            3                       # number of ReadReq MSHR hits
system.cpu2.icache.ReadReq_mshr_hits::total            3                       # number of ReadReq MSHR hits
system.cpu2.icache.demand_mshr_hits::switch_cpus2.inst            3                       # number of demand (read+write) MSHR hits
system.cpu2.icache.demand_mshr_hits::total            3                       # number of demand (read+write) MSHR hits
system.cpu2.icache.overall_mshr_hits::switch_cpus2.inst            3                       # number of overall MSHR hits
system.cpu2.icache.overall_mshr_hits::total            3                       # number of overall MSHR hits
system.cpu2.icache.ReadReq_mshr_misses::switch_cpus2.inst           14                       # number of ReadReq MSHR misses
system.cpu2.icache.ReadReq_mshr_misses::total           14                       # number of ReadReq MSHR misses
system.cpu2.icache.demand_mshr_misses::switch_cpus2.inst           14                       # number of demand (read+write) MSHR misses
system.cpu2.icache.demand_mshr_misses::total           14                       # number of demand (read+write) MSHR misses
system.cpu2.icache.overall_mshr_misses::switch_cpus2.inst           14                       # number of overall MSHR misses
system.cpu2.icache.overall_mshr_misses::total           14                       # number of overall MSHR misses
system.cpu2.icache.ReadReq_mshr_miss_latency::switch_cpus2.inst      3710573                       # number of ReadReq MSHR miss cycles
system.cpu2.icache.ReadReq_mshr_miss_latency::total      3710573                       # number of ReadReq MSHR miss cycles
system.cpu2.icache.demand_mshr_miss_latency::switch_cpus2.inst      3710573                       # number of demand (read+write) MSHR miss cycles
system.cpu2.icache.demand_mshr_miss_latency::total      3710573                       # number of demand (read+write) MSHR miss cycles
system.cpu2.icache.overall_mshr_miss_latency::switch_cpus2.inst      3710573                       # number of overall MSHR miss cycles
system.cpu2.icache.overall_mshr_miss_latency::total      3710573                       # number of overall MSHR miss cycles
system.cpu2.icache.ReadReq_mshr_miss_rate::switch_cpus2.inst     0.000001                       # mshr miss rate for ReadReq accesses
system.cpu2.icache.ReadReq_mshr_miss_rate::total     0.000001                       # mshr miss rate for ReadReq accesses
system.cpu2.icache.demand_mshr_miss_rate::switch_cpus2.inst     0.000001                       # mshr miss rate for demand accesses
system.cpu2.icache.demand_mshr_miss_rate::total     0.000001                       # mshr miss rate for demand accesses
system.cpu2.icache.overall_mshr_miss_rate::switch_cpus2.inst     0.000001                       # mshr miss rate for overall accesses
system.cpu2.icache.overall_mshr_miss_rate::total     0.000001                       # mshr miss rate for overall accesses
system.cpu2.icache.ReadReq_avg_mshr_miss_latency::switch_cpus2.inst 265040.928571                       # average ReadReq mshr miss latency
system.cpu2.icache.ReadReq_avg_mshr_miss_latency::total 265040.928571                       # average ReadReq mshr miss latency
system.cpu2.icache.demand_avg_mshr_miss_latency::switch_cpus2.inst 265040.928571                       # average overall mshr miss latency
system.cpu2.icache.demand_avg_mshr_miss_latency::total 265040.928571                       # average overall mshr miss latency
system.cpu2.icache.overall_avg_mshr_miss_latency::switch_cpus2.inst 265040.928571                       # average overall mshr miss latency
system.cpu2.icache.overall_avg_mshr_miss_latency::total 265040.928571                       # average overall mshr miss latency
system.cpu2.icache.no_allocate_misses               0                       # Number of misses that were no-allocate
system.cpu2.dcache.replacements                 39376                       # number of replacements
system.cpu2.dcache.tagsinuse                      256                       # Cycle average of tags in use
system.cpu2.dcache.total_refs               168012763                       # Total number of references to valid blocks.
system.cpu2.dcache.sampled_refs                 39632                       # Sample count of references to valid blocks.
system.cpu2.dcache.avg_refs               4239.320827                       # Average number of references to valid blocks.
system.cpu2.dcache.warmup_cycle                     0                       # Cycle when the warmup percentage was hit.
system.cpu2.dcache.occ_blocks::switch_cpus2.data   231.753209                       # Average occupied blocks per requestor
system.cpu2.dcache.occ_blocks::cpu2.data    24.246791                       # Average occupied blocks per requestor
system.cpu2.dcache.occ_percent::switch_cpus2.data     0.905286                       # Average percentage of cache occupancy
system.cpu2.dcache.occ_percent::cpu2.data     0.094714                       # Average percentage of cache occupancy
system.cpu2.dcache.occ_percent::total               1                       # Average percentage of cache occupancy
system.cpu2.dcache.ReadReq_hits::switch_cpus2.data      9474212                       # number of ReadReq hits
system.cpu2.dcache.ReadReq_hits::total        9474212                       # number of ReadReq hits
system.cpu2.dcache.WriteReq_hits::switch_cpus2.data      7176469                       # number of WriteReq hits
system.cpu2.dcache.WriteReq_hits::total       7176469                       # number of WriteReq hits
system.cpu2.dcache.LoadLockedReq_hits::switch_cpus2.data        17192                       # number of LoadLockedReq hits
system.cpu2.dcache.LoadLockedReq_hits::total        17192                       # number of LoadLockedReq hits
system.cpu2.dcache.StoreCondReq_hits::switch_cpus2.data        17192                       # number of StoreCondReq hits
system.cpu2.dcache.StoreCondReq_hits::total        17192                       # number of StoreCondReq hits
system.cpu2.dcache.demand_hits::switch_cpus2.data     16650681                       # number of demand (read+write) hits
system.cpu2.dcache.demand_hits::total        16650681                       # number of demand (read+write) hits
system.cpu2.dcache.overall_hits::switch_cpus2.data     16650681                       # number of overall hits
system.cpu2.dcache.overall_hits::total       16650681                       # number of overall hits
system.cpu2.dcache.ReadReq_misses::switch_cpus2.data       119325                       # number of ReadReq misses
system.cpu2.dcache.ReadReq_misses::total       119325                       # number of ReadReq misses
system.cpu2.dcache.demand_misses::switch_cpus2.data       119325                       # number of demand (read+write) misses
system.cpu2.dcache.demand_misses::total        119325                       # number of demand (read+write) misses
system.cpu2.dcache.overall_misses::switch_cpus2.data       119325                       # number of overall misses
system.cpu2.dcache.overall_misses::total       119325                       # number of overall misses
system.cpu2.dcache.ReadReq_miss_latency::switch_cpus2.data  13702798244                       # number of ReadReq miss cycles
system.cpu2.dcache.ReadReq_miss_latency::total  13702798244                       # number of ReadReq miss cycles
system.cpu2.dcache.demand_miss_latency::switch_cpus2.data  13702798244                       # number of demand (read+write) miss cycles
system.cpu2.dcache.demand_miss_latency::total  13702798244                       # number of demand (read+write) miss cycles
system.cpu2.dcache.overall_miss_latency::switch_cpus2.data  13702798244                       # number of overall miss cycles
system.cpu2.dcache.overall_miss_latency::total  13702798244                       # number of overall miss cycles
system.cpu2.dcache.ReadReq_accesses::switch_cpus2.data      9593537                       # number of ReadReq accesses(hits+misses)
system.cpu2.dcache.ReadReq_accesses::total      9593537                       # number of ReadReq accesses(hits+misses)
system.cpu2.dcache.WriteReq_accesses::switch_cpus2.data      7176469                       # number of WriteReq accesses(hits+misses)
system.cpu2.dcache.WriteReq_accesses::total      7176469                       # number of WriteReq accesses(hits+misses)
system.cpu2.dcache.LoadLockedReq_accesses::switch_cpus2.data        17192                       # number of LoadLockedReq accesses(hits+misses)
system.cpu2.dcache.LoadLockedReq_accesses::total        17192                       # number of LoadLockedReq accesses(hits+misses)
system.cpu2.dcache.StoreCondReq_accesses::switch_cpus2.data        17192                       # number of StoreCondReq accesses(hits+misses)
system.cpu2.dcache.StoreCondReq_accesses::total        17192                       # number of StoreCondReq accesses(hits+misses)
system.cpu2.dcache.demand_accesses::switch_cpus2.data     16770006                       # number of demand (read+write) accesses
system.cpu2.dcache.demand_accesses::total     16770006                       # number of demand (read+write) accesses
system.cpu2.dcache.overall_accesses::switch_cpus2.data     16770006                       # number of overall (read+write) accesses
system.cpu2.dcache.overall_accesses::total     16770006                       # number of overall (read+write) accesses
system.cpu2.dcache.ReadReq_miss_rate::switch_cpus2.data     0.012438                       # miss rate for ReadReq accesses
system.cpu2.dcache.ReadReq_miss_rate::total     0.012438                       # miss rate for ReadReq accesses
system.cpu2.dcache.demand_miss_rate::switch_cpus2.data     0.007115                       # miss rate for demand accesses
system.cpu2.dcache.demand_miss_rate::total     0.007115                       # miss rate for demand accesses
system.cpu2.dcache.overall_miss_rate::switch_cpus2.data     0.007115                       # miss rate for overall accesses
system.cpu2.dcache.overall_miss_rate::total     0.007115                       # miss rate for overall accesses
system.cpu2.dcache.ReadReq_avg_miss_latency::switch_cpus2.data 114835.937515                       # average ReadReq miss latency
system.cpu2.dcache.ReadReq_avg_miss_latency::total 114835.937515                       # average ReadReq miss latency
system.cpu2.dcache.demand_avg_miss_latency::switch_cpus2.data 114835.937515                       # average overall miss latency
system.cpu2.dcache.demand_avg_miss_latency::total 114835.937515                       # average overall miss latency
system.cpu2.dcache.overall_avg_miss_latency::switch_cpus2.data 114835.937515                       # average overall miss latency
system.cpu2.dcache.overall_avg_miss_latency::total 114835.937515                       # average overall miss latency
system.cpu2.dcache.blocked_cycles::no_mshrs            0                       # number of cycles access was blocked
system.cpu2.dcache.blocked_cycles::no_targets            0                       # number of cycles access was blocked
system.cpu2.dcache.blocked::no_mshrs                0                       # number of cycles access was blocked
system.cpu2.dcache.blocked::no_targets              0                       # number of cycles access was blocked
system.cpu2.dcache.avg_blocked_cycles::no_mshrs          nan                       # average number of cycles each access was blocked
system.cpu2.dcache.avg_blocked_cycles::no_targets          nan                       # average number of cycles each access was blocked
system.cpu2.dcache.fast_writes                      0                       # number of fast writes performed
system.cpu2.dcache.cache_copies                     0                       # number of cache copies performed
system.cpu2.dcache.writebacks::writebacks        10670                       # number of writebacks
system.cpu2.dcache.writebacks::total            10670                       # number of writebacks
system.cpu2.dcache.ReadReq_mshr_hits::switch_cpus2.data        79949                       # number of ReadReq MSHR hits
system.cpu2.dcache.ReadReq_mshr_hits::total        79949                       # number of ReadReq MSHR hits
system.cpu2.dcache.demand_mshr_hits::switch_cpus2.data        79949                       # number of demand (read+write) MSHR hits
system.cpu2.dcache.demand_mshr_hits::total        79949                       # number of demand (read+write) MSHR hits
system.cpu2.dcache.overall_mshr_hits::switch_cpus2.data        79949                       # number of overall MSHR hits
system.cpu2.dcache.overall_mshr_hits::total        79949                       # number of overall MSHR hits
system.cpu2.dcache.ReadReq_mshr_misses::switch_cpus2.data        39376                       # number of ReadReq MSHR misses
system.cpu2.dcache.ReadReq_mshr_misses::total        39376                       # number of ReadReq MSHR misses
system.cpu2.dcache.demand_mshr_misses::switch_cpus2.data        39376                       # number of demand (read+write) MSHR misses
system.cpu2.dcache.demand_mshr_misses::total        39376                       # number of demand (read+write) MSHR misses
system.cpu2.dcache.overall_mshr_misses::switch_cpus2.data        39376                       # number of overall MSHR misses
system.cpu2.dcache.overall_mshr_misses::total        39376                       # number of overall MSHR misses
system.cpu2.dcache.ReadReq_mshr_miss_latency::switch_cpus2.data   3465781596                       # number of ReadReq MSHR miss cycles
system.cpu2.dcache.ReadReq_mshr_miss_latency::total   3465781596                       # number of ReadReq MSHR miss cycles
system.cpu2.dcache.demand_mshr_miss_latency::switch_cpus2.data   3465781596                       # number of demand (read+write) MSHR miss cycles
system.cpu2.dcache.demand_mshr_miss_latency::total   3465781596                       # number of demand (read+write) MSHR miss cycles
system.cpu2.dcache.overall_mshr_miss_latency::switch_cpus2.data   3465781596                       # number of overall MSHR miss cycles
system.cpu2.dcache.overall_mshr_miss_latency::total   3465781596                       # number of overall MSHR miss cycles
system.cpu2.dcache.ReadReq_mshr_miss_rate::switch_cpus2.data     0.004104                       # mshr miss rate for ReadReq accesses
system.cpu2.dcache.ReadReq_mshr_miss_rate::total     0.004104                       # mshr miss rate for ReadReq accesses
system.cpu2.dcache.demand_mshr_miss_rate::switch_cpus2.data     0.002348                       # mshr miss rate for demand accesses
system.cpu2.dcache.demand_mshr_miss_rate::total     0.002348                       # mshr miss rate for demand accesses
system.cpu2.dcache.overall_mshr_miss_rate::switch_cpus2.data     0.002348                       # mshr miss rate for overall accesses
system.cpu2.dcache.overall_mshr_miss_rate::total     0.002348                       # mshr miss rate for overall accesses
system.cpu2.dcache.ReadReq_avg_mshr_miss_latency::switch_cpus2.data 88017.614689                       # average ReadReq mshr miss latency
system.cpu2.dcache.ReadReq_avg_mshr_miss_latency::total 88017.614689                       # average ReadReq mshr miss latency
system.cpu2.dcache.demand_avg_mshr_miss_latency::switch_cpus2.data 88017.614689                       # average overall mshr miss latency
system.cpu2.dcache.demand_avg_mshr_miss_latency::total 88017.614689                       # average overall mshr miss latency
system.cpu2.dcache.overall_avg_mshr_miss_latency::switch_cpus2.data 88017.614689                       # average overall mshr miss latency
system.cpu2.dcache.overall_avg_mshr_miss_latency::total 88017.614689                       # average overall mshr miss latency
system.cpu2.dcache.no_allocate_misses               0                       # Number of misses that were no-allocate

---------- End Simulation Statistics   ----------
