
---------- Begin Simulation Statistics ----------
sim_seconds                                  0.099142                       # Number of seconds simulated
sim_ticks                                 99142172004                       # Number of ticks simulated
final_tick                               627218881506                       # Number of ticks from beginning of simulation (restored from checkpoints and never reset)
sim_freq                                 1000000000000                       # Frequency of simulated ticks
host_inst_rate                                 139033                       # Simulator instruction rate (inst/s)
host_op_rate                                   175600                       # Simulator op (including micro ops) rate (op/s)
host_tick_rate                                6280031                       # Simulator tick rate (ticks/s)
host_mem_usage                               16888060                       # Number of bytes of host memory used
host_seconds                                 15786.89                       # Real time elapsed on the host
sim_insts                                  2194900472                       # Number of instructions simulated
sim_ops                                    2772173672                       # Number of ops (including micro ops) simulated
system.physmem.bytes_read::switch_cpus0.inst         1792                       # Number of bytes read from this memory
system.physmem.bytes_read::switch_cpus0.data       763008                       # Number of bytes read from this memory
system.physmem.bytes_read::switch_cpus1.inst         1664                       # Number of bytes read from this memory
system.physmem.bytes_read::switch_cpus1.data      1112064                       # Number of bytes read from this memory
system.physmem.bytes_read::total              1878528                       # Number of bytes read from this memory
system.physmem.bytes_inst_read::switch_cpus0.inst         1792                       # Number of instructions bytes read from this memory
system.physmem.bytes_inst_read::switch_cpus1.inst         1664                       # Number of instructions bytes read from this memory
system.physmem.bytes_inst_read::total            3456                       # Number of instructions bytes read from this memory
system.physmem.bytes_written::writebacks      1202432                       # Number of bytes written to this memory
system.physmem.bytes_written::total           1202432                       # Number of bytes written to this memory
system.physmem.num_reads::switch_cpus0.inst           14                       # Number of read requests responded to by this memory
system.physmem.num_reads::switch_cpus0.data         5961                       # Number of read requests responded to by this memory
system.physmem.num_reads::switch_cpus1.inst           13                       # Number of read requests responded to by this memory
system.physmem.num_reads::switch_cpus1.data         8688                       # Number of read requests responded to by this memory
system.physmem.num_reads::total                 14676                       # Number of read requests responded to by this memory
system.physmem.num_writes::writebacks            9394                       # Number of write requests responded to by this memory
system.physmem.num_writes::functional               0                       # Number of write requests responded to by this memory
system.physmem.num_writes::interrupt                0                       # Number of write requests responded to by this memory
system.physmem.num_writes::switch_cpus0.dtb.walker            0                       # Number of write requests responded to by this memory
system.physmem.num_writes::switch_cpus0.itb.walker            0                       # Number of write requests responded to by this memory
system.physmem.num_writes::switch_cpus0.inst            0                       # Number of write requests responded to by this memory
system.physmem.num_writes::switch_cpus0.data            0                       # Number of write requests responded to by this memory
system.physmem.num_writes::switch_cpus1.dtb.walker            0                       # Number of write requests responded to by this memory
system.physmem.num_writes::switch_cpus1.itb.walker            0                       # Number of write requests responded to by this memory
system.physmem.num_writes::switch_cpus1.inst            0                       # Number of write requests responded to by this memory
system.physmem.num_writes::switch_cpus1.data            0                       # Number of write requests responded to by this memory
system.physmem.num_writes::cpu0.dtb.walker            0                       # Number of write requests responded to by this memory
system.physmem.num_writes::cpu0.itb.walker            0                       # Number of write requests responded to by this memory
system.physmem.num_writes::cpu0.inst                0                       # Number of write requests responded to by this memory
system.physmem.num_writes::cpu0.data                0                       # Number of write requests responded to by this memory
system.physmem.num_writes::cpu1.dtb.walker            0                       # Number of write requests responded to by this memory
system.physmem.num_writes::cpu1.itb.walker            0                       # Number of write requests responded to by this memory
system.physmem.num_writes::cpu1.inst                0                       # Number of write requests responded to by this memory
system.physmem.num_writes::cpu1.data                0                       # Number of write requests responded to by this memory
system.physmem.num_writes::total                 9394                       # Number of write requests responded to by this memory
system.physmem.bw_read::switch_cpus0.inst        18075                       # Total read bandwidth from this memory (bytes/s)
system.physmem.bw_read::switch_cpus0.data      7696099                       # Total read bandwidth from this memory (bytes/s)
system.physmem.bw_read::switch_cpus1.inst        16784                       # Total read bandwidth from this memory (bytes/s)
system.physmem.bw_read::switch_cpus1.data     11216861                       # Total read bandwidth from this memory (bytes/s)
system.physmem.bw_read::total                18947820                       # Total read bandwidth from this memory (bytes/s)
system.physmem.bw_inst_read::switch_cpus0.inst        18075                       # Instruction read bandwidth from this memory (bytes/s)
system.physmem.bw_inst_read::switch_cpus1.inst        16784                       # Instruction read bandwidth from this memory (bytes/s)
system.physmem.bw_inst_read::total              34859                       # Instruction read bandwidth from this memory (bytes/s)
system.physmem.bw_write::writebacks          12128360                       # Write bandwidth from this memory (bytes/s)
system.physmem.bw_write::total               12128360                       # Write bandwidth from this memory (bytes/s)
system.physmem.bw_total::writebacks          12128360                       # Total bandwidth to/from this memory (bytes/s)
system.physmem.bw_total::switch_cpus0.inst        18075                       # Total bandwidth to/from this memory (bytes/s)
system.physmem.bw_total::switch_cpus0.data      7696099                       # Total bandwidth to/from this memory (bytes/s)
system.physmem.bw_total::switch_cpus1.inst        16784                       # Total bandwidth to/from this memory (bytes/s)
system.physmem.bw_total::switch_cpus1.data     11216861                       # Total bandwidth to/from this memory (bytes/s)
system.physmem.bw_total::total               31076180                       # Total bandwidth to/from this memory (bytes/s)
system.switch_cpus0.dtb.inst_hits                   0                       # ITB inst hits
system.switch_cpus0.dtb.inst_misses                 0                       # ITB inst misses
system.switch_cpus0.dtb.read_hits                   0                       # DTB read hits
system.switch_cpus0.dtb.read_misses                 0                       # DTB read misses
system.switch_cpus0.dtb.write_hits                  0                       # DTB write hits
system.switch_cpus0.dtb.write_misses                0                       # DTB write misses
system.switch_cpus0.dtb.flush_tlb                   0                       # Number of times complete TLB was flushed
system.switch_cpus0.dtb.flush_tlb_mva               0                       # Number of times TLB was flushed by MVA
system.switch_cpus0.dtb.flush_tlb_mva_asid            0                       # Number of times TLB was flushed by MVA & ASID
system.switch_cpus0.dtb.flush_tlb_asid              0                       # Number of times TLB was flushed by ASID
system.switch_cpus0.dtb.flush_entries               0                       # Number of entries that have been flushed from TLB
system.switch_cpus0.dtb.align_faults                0                       # Number of TLB faults due to alignment restrictions
system.switch_cpus0.dtb.prefetch_faults             0                       # Number of TLB faults due to prefetch
system.switch_cpus0.dtb.domain_faults               0                       # Number of TLB faults due to domain restrictions
system.switch_cpus0.dtb.perms_faults                0                       # Number of TLB faults due to permissions restrictions
system.switch_cpus0.dtb.read_accesses               0                       # DTB read accesses
system.switch_cpus0.dtb.write_accesses              0                       # DTB write accesses
system.switch_cpus0.dtb.inst_accesses               0                       # ITB inst accesses
system.switch_cpus0.dtb.hits                        0                       # DTB hits
system.switch_cpus0.dtb.misses                      0                       # DTB misses
system.switch_cpus0.dtb.accesses                    0                       # DTB accesses
system.switch_cpus0.itb.inst_hits                   0                       # ITB inst hits
system.switch_cpus0.itb.inst_misses                 0                       # ITB inst misses
system.switch_cpus0.itb.read_hits                   0                       # DTB read hits
system.switch_cpus0.itb.read_misses                 0                       # DTB read misses
system.switch_cpus0.itb.write_hits                  0                       # DTB write hits
system.switch_cpus0.itb.write_misses                0                       # DTB write misses
system.switch_cpus0.itb.flush_tlb                   0                       # Number of times complete TLB was flushed
system.switch_cpus0.itb.flush_tlb_mva               0                       # Number of times TLB was flushed by MVA
system.switch_cpus0.itb.flush_tlb_mva_asid            0                       # Number of times TLB was flushed by MVA & ASID
system.switch_cpus0.itb.flush_tlb_asid              0                       # Number of times TLB was flushed by ASID
system.switch_cpus0.itb.flush_entries               0                       # Number of entries that have been flushed from TLB
system.switch_cpus0.itb.align_faults                0                       # Number of TLB faults due to alignment restrictions
system.switch_cpus0.itb.prefetch_faults             0                       # Number of TLB faults due to prefetch
system.switch_cpus0.itb.domain_faults               0                       # Number of TLB faults due to domain restrictions
system.switch_cpus0.itb.perms_faults                0                       # Number of TLB faults due to permissions restrictions
system.switch_cpus0.itb.read_accesses               0                       # DTB read accesses
system.switch_cpus0.itb.write_accesses              0                       # DTB write accesses
system.switch_cpus0.itb.inst_accesses               0                       # ITB inst accesses
system.switch_cpus0.itb.hits                        0                       # DTB hits
system.switch_cpus0.itb.misses                      0                       # DTB misses
system.switch_cpus0.itb.accesses                    0                       # DTB accesses
system.cpu0.workload.num_syscalls                   0                       # Number of system calls
system.switch_cpus0.numCycles               237751013                       # number of cpu cycles simulated
system.switch_cpus0.numWorkItemsStarted             0                       # number of work items this cpu started
system.switch_cpus0.numWorkItemsCompleted            0                       # number of work items this cpu completed
system.switch_cpus0.BPredUnit.lookups        21504481                       # Number of BP lookups
system.switch_cpus0.BPredUnit.condPredicted     17433073                       # Number of conditional branches predicted
system.switch_cpus0.BPredUnit.condIncorrect      1977189                       # Number of conditional branches incorrect
system.switch_cpus0.BPredUnit.BTBLookups      8766170                       # Number of BTB lookups
system.switch_cpus0.BPredUnit.BTBHits         8145522                       # Number of BTB hits
system.switch_cpus0.BPredUnit.BTBCorrect            0                       # Number of correct BTB predictions (this stat may not work properly.
system.switch_cpus0.BPredUnit.usedRAS         2333967                       # Number of times the RAS was used to get a target.
system.switch_cpus0.BPredUnit.RASInCorrect        93552                       # Number of incorrect RAS predictions.
system.switch_cpus0.fetch.icacheStallCycles    186253796                       # Number of cycles fetch is stalled on an Icache miss
system.switch_cpus0.fetch.Insts             119883386                       # Number of instructions fetch has processed
system.switch_cpus0.fetch.Branches           21504481                       # Number of branches that fetch encountered
system.switch_cpus0.fetch.predictedBranches     10479489                       # Number of branches that fetch has predicted taken
system.switch_cpus0.fetch.Cycles             26384289                       # Number of cycles fetch has run and was not squashing or blocked
system.switch_cpus0.fetch.SquashCycles        6027159                       # Number of cycles fetch has spent squashing
system.switch_cpus0.fetch.BlockedCycles       3575034                       # Number of cycles fetch has spent blocked
system.switch_cpus0.fetch.MiscStallCycles            1                       # Number of cycles fetch has spent waiting on interrupts, or bad addresses, or out of MSHRs
system.switch_cpus0.fetch.PendingTrapStallCycles           36                       # Number of stall cycles due to pending traps
system.switch_cpus0.fetch.CacheLines         11507711                       # Number of cache lines fetched
system.switch_cpus0.fetch.IcacheSquashes      1975695                       # Number of outstanding Icache misses that were squashed
system.switch_cpus0.fetch.rateDist::samples    220237590                       # Number of instructions fetched each cycle (Total)
system.switch_cpus0.fetch.rateDist::mean     0.668561                       # Number of instructions fetched each cycle (Total)
system.switch_cpus0.fetch.rateDist::stdev     2.029130                       # Number of instructions fetched each cycle (Total)
system.switch_cpus0.fetch.rateDist::underflows            0      0.00%      0.00% # Number of instructions fetched each cycle (Total)
system.switch_cpus0.fetch.rateDist::0       193853301     88.02%     88.02% # Number of instructions fetched each cycle (Total)
system.switch_cpus0.fetch.rateDist::1         1836831      0.83%     88.85% # Number of instructions fetched each cycle (Total)
system.switch_cpus0.fetch.rateDist::2         3336096      1.51%     90.37% # Number of instructions fetched each cycle (Total)
system.switch_cpus0.fetch.rateDist::3         3088346      1.40%     91.77% # Number of instructions fetched each cycle (Total)
system.switch_cpus0.fetch.rateDist::4         1964594      0.89%     92.66% # Number of instructions fetched each cycle (Total)
system.switch_cpus0.fetch.rateDist::5         1617156      0.73%     93.40% # Number of instructions fetched each cycle (Total)
system.switch_cpus0.fetch.rateDist::6          925242      0.42%     93.82% # Number of instructions fetched each cycle (Total)
system.switch_cpus0.fetch.rateDist::7          955532      0.43%     94.25% # Number of instructions fetched each cycle (Total)
system.switch_cpus0.fetch.rateDist::8        12660492      5.75%    100.00% # Number of instructions fetched each cycle (Total)
system.switch_cpus0.fetch.rateDist::overflows            0      0.00%    100.00% # Number of instructions fetched each cycle (Total)
system.switch_cpus0.fetch.rateDist::min_value            0                       # Number of instructions fetched each cycle (Total)
system.switch_cpus0.fetch.rateDist::max_value            8                       # Number of instructions fetched each cycle (Total)
system.switch_cpus0.fetch.rateDist::total    220237590                       # Number of instructions fetched each cycle (Total)
system.switch_cpus0.fetch.branchRate         0.090450                       # Number of branch fetches per cycle
system.switch_cpus0.fetch.rate               0.504239                       # Number of inst fetches per cycle
system.switch_cpus0.decode.IdleCycles       184360218                       # Number of cycles decode is idle
system.switch_cpus0.decode.BlockedCycles      5485930                       # Number of cycles decode is blocked
system.switch_cpus0.decode.RunCycles         26322330                       # Number of cycles decode is running
system.switch_cpus0.decode.UnblockCycles        44903                       # Number of cycles decode is unblocking
system.switch_cpus0.decode.SquashCycles       4024208                       # Number of cycles decode is squashing
system.switch_cpus0.decode.BranchResolved      3734464                       # Number of times decode resolved a branch
system.switch_cpus0.decode.BranchMispred          226                       # Number of times decode detected a branch misprediction
system.switch_cpus0.decode.DecodedInsts     147144023                       # Number of instructions handled by decode
system.switch_cpus0.decode.SquashedInsts         1300                       # Number of squashed instructions handled by decode
system.switch_cpus0.rename.SquashCycles       4024208                       # Number of cycles rename is squashing
system.switch_cpus0.rename.IdleCycles       184833012                       # Number of cycles rename is idle
system.switch_cpus0.rename.BlockCycles        1181754                       # Number of cycles rename is blocking
system.switch_cpus0.rename.serializeStallCycles      3224640                       # count of cycles rename stalled for serializing inst
system.switch_cpus0.rename.RunCycles         25865209                       # Number of cycles rename is running
system.switch_cpus0.rename.UnblockCycles      1108766                       # Number of cycles rename is unblocking
system.switch_cpus0.rename.RenamedInsts     147020817                       # Number of instructions processed by rename
system.switch_cpus0.rename.IQFullEvents        178174                       # Number of times rename has blocked due to IQ full
system.switch_cpus0.rename.LSQFullEvents       480426                       # Number of times rename has blocked due to LSQ full
system.switch_cpus0.rename.RenamedOperands    208553970                       # Number of destination operands rename has renamed
system.switch_cpus0.rename.RenameLookups    684835215                       # Number of register rename lookups that rename has made
system.switch_cpus0.rename.int_rename_lookups    684835215                       # Number of integer rename lookups
system.switch_cpus0.rename.CommittedMaps    171704513                       # Number of HB maps that are committed
system.switch_cpus0.rename.UndoneMaps        36849448                       # Number of HB maps that are undone due to squashing
system.switch_cpus0.rename.serializingInsts        33814                       # count of serializing insts renamed
system.switch_cpus0.rename.tempSerializingInsts        16907                       # count of temporary serializing insts renamed
system.switch_cpus0.rename.skidInsts          4111688                       # count of insts added to the skid buffer
system.switch_cpus0.memDep0.insertedLoads     13862779                       # Number of loads inserted to the mem dependence unit.
system.switch_cpus0.memDep0.insertedStores      7183883                       # Number of stores inserted to the mem dependence unit.
system.switch_cpus0.memDep0.conflictingLoads        82689                       # Number of conflicting loads.
system.switch_cpus0.memDep0.conflictingStores      1604192                       # Number of conflicting stores.
system.switch_cpus0.iq.iqInstsAdded         146055923                       # Number of instructions added to the IQ (excludes non-spec)
system.switch_cpus0.iq.iqNonSpecInstsAdded        33814                       # Number of non-speculative instructions added to the IQ
system.switch_cpus0.iq.iqInstsIssued        137959185                       # Number of instructions issued
system.switch_cpus0.iq.iqSquashedInstsIssued       117057                       # Number of squashed instructions issued
system.switch_cpus0.iq.iqSquashedInstsExamined     21996215                       # Number of squashed instructions iterated over during squash; mainly for profiling
system.switch_cpus0.iq.iqSquashedOperandsExamined     46189547                       # Number of squashed operands that are examined and possibly removed from graph
system.switch_cpus0.iq.issued_per_cycle::samples    220237590                       # Number of insts issued each cycle
system.switch_cpus0.iq.issued_per_cycle::mean     0.626411                       # Number of insts issued each cycle
system.switch_cpus0.iq.issued_per_cycle::stdev     1.299467                       # Number of insts issued each cycle
system.switch_cpus0.iq.issued_per_cycle::underflows            0      0.00%      0.00% # Number of insts issued each cycle
system.switch_cpus0.iq.issued_per_cycle::0    160751103     72.99%     72.99% # Number of insts issued each cycle
system.switch_cpus0.iq.issued_per_cycle::1     25168839     11.43%     84.42% # Number of insts issued each cycle
system.switch_cpus0.iq.issued_per_cycle::2     13556506      6.16%     90.57% # Number of insts issued each cycle
system.switch_cpus0.iq.issued_per_cycle::3      6868761      3.12%     93.69% # Number of insts issued each cycle
system.switch_cpus0.iq.issued_per_cycle::4      8180125      3.71%     97.41% # Number of insts issued each cycle
system.switch_cpus0.iq.issued_per_cycle::5      2646545      1.20%     98.61% # Number of insts issued each cycle
system.switch_cpus0.iq.issued_per_cycle::6      2484242      1.13%     99.74% # Number of insts issued each cycle
system.switch_cpus0.iq.issued_per_cycle::7       439378      0.20%     99.94% # Number of insts issued each cycle
system.switch_cpus0.iq.issued_per_cycle::8       142091      0.06%    100.00% # Number of insts issued each cycle
system.switch_cpus0.iq.issued_per_cycle::overflows            0      0.00%    100.00% # Number of insts issued each cycle
system.switch_cpus0.iq.issued_per_cycle::min_value            0                       # Number of insts issued each cycle
system.switch_cpus0.iq.issued_per_cycle::max_value            8                       # Number of insts issued each cycle
system.switch_cpus0.iq.issued_per_cycle::total    220237590                       # Number of insts issued each cycle
system.switch_cpus0.iq.fu_full::No_OpClass            0      0.00%      0.00% # attempts to use FU when none available
system.switch_cpus0.iq.fu_full::IntAlu         416563     59.72%     59.72% # attempts to use FU when none available
system.switch_cpus0.iq.fu_full::IntMult             0      0.00%     59.72% # attempts to use FU when none available
system.switch_cpus0.iq.fu_full::IntDiv              0      0.00%     59.72% # attempts to use FU when none available
system.switch_cpus0.iq.fu_full::FloatAdd            0      0.00%     59.72% # attempts to use FU when none available
system.switch_cpus0.iq.fu_full::FloatCmp            0      0.00%     59.72% # attempts to use FU when none available
system.switch_cpus0.iq.fu_full::FloatCvt            0      0.00%     59.72% # attempts to use FU when none available
system.switch_cpus0.iq.fu_full::FloatMult            0      0.00%     59.72% # attempts to use FU when none available
system.switch_cpus0.iq.fu_full::FloatDiv            0      0.00%     59.72% # attempts to use FU when none available
system.switch_cpus0.iq.fu_full::FloatSqrt            0      0.00%     59.72% # attempts to use FU when none available
system.switch_cpus0.iq.fu_full::SimdAdd             0      0.00%     59.72% # attempts to use FU when none available
system.switch_cpus0.iq.fu_full::SimdAddAcc            0      0.00%     59.72% # attempts to use FU when none available
system.switch_cpus0.iq.fu_full::SimdAlu             0      0.00%     59.72% # attempts to use FU when none available
system.switch_cpus0.iq.fu_full::SimdCmp             0      0.00%     59.72% # attempts to use FU when none available
system.switch_cpus0.iq.fu_full::SimdCvt             0      0.00%     59.72% # attempts to use FU when none available
system.switch_cpus0.iq.fu_full::SimdMisc            0      0.00%     59.72% # attempts to use FU when none available
system.switch_cpus0.iq.fu_full::SimdMult            0      0.00%     59.72% # attempts to use FU when none available
system.switch_cpus0.iq.fu_full::SimdMultAcc            0      0.00%     59.72% # attempts to use FU when none available
system.switch_cpus0.iq.fu_full::SimdShift            0      0.00%     59.72% # attempts to use FU when none available
system.switch_cpus0.iq.fu_full::SimdShiftAcc            0      0.00%     59.72% # attempts to use FU when none available
system.switch_cpus0.iq.fu_full::SimdSqrt            0      0.00%     59.72% # attempts to use FU when none available
system.switch_cpus0.iq.fu_full::SimdFloatAdd            0      0.00%     59.72% # attempts to use FU when none available
system.switch_cpus0.iq.fu_full::SimdFloatAlu            0      0.00%     59.72% # attempts to use FU when none available
system.switch_cpus0.iq.fu_full::SimdFloatCmp            0      0.00%     59.72% # attempts to use FU when none available
system.switch_cpus0.iq.fu_full::SimdFloatCvt            0      0.00%     59.72% # attempts to use FU when none available
system.switch_cpus0.iq.fu_full::SimdFloatDiv            0      0.00%     59.72% # attempts to use FU when none available
system.switch_cpus0.iq.fu_full::SimdFloatMisc            0      0.00%     59.72% # attempts to use FU when none available
system.switch_cpus0.iq.fu_full::SimdFloatMult            0      0.00%     59.72% # attempts to use FU when none available
system.switch_cpus0.iq.fu_full::SimdFloatMultAcc            0      0.00%     59.72% # attempts to use FU when none available
system.switch_cpus0.iq.fu_full::SimdFloatSqrt            0      0.00%     59.72% # attempts to use FU when none available
system.switch_cpus0.iq.fu_full::MemRead        143230     20.53%     80.25% # attempts to use FU when none available
system.switch_cpus0.iq.fu_full::MemWrite       137768     19.75%    100.00% # attempts to use FU when none available
system.switch_cpus0.iq.fu_full::IprAccess            0      0.00%    100.00% # attempts to use FU when none available
system.switch_cpus0.iq.fu_full::InstPrefetch            0      0.00%    100.00% # attempts to use FU when none available
system.switch_cpus0.iq.FU_type_0::No_OpClass            0      0.00%      0.00% # Type of FU issued
system.switch_cpus0.iq.FU_type_0::IntAlu    116012540     84.09%     84.09% # Type of FU issued
system.switch_cpus0.iq.FU_type_0::IntMult      1978507      1.43%     85.53% # Type of FU issued
system.switch_cpus0.iq.FU_type_0::IntDiv            0      0.00%     85.53% # Type of FU issued
system.switch_cpus0.iq.FU_type_0::FloatAdd            0      0.00%     85.53% # Type of FU issued
system.switch_cpus0.iq.FU_type_0::FloatCmp            0      0.00%     85.53% # Type of FU issued
system.switch_cpus0.iq.FU_type_0::FloatCvt            0      0.00%     85.53% # Type of FU issued
system.switch_cpus0.iq.FU_type_0::FloatMult            0      0.00%     85.53% # Type of FU issued
system.switch_cpus0.iq.FU_type_0::FloatDiv            0      0.00%     85.53% # Type of FU issued
system.switch_cpus0.iq.FU_type_0::FloatSqrt            0      0.00%     85.53% # Type of FU issued
system.switch_cpus0.iq.FU_type_0::SimdAdd            0      0.00%     85.53% # Type of FU issued
system.switch_cpus0.iq.FU_type_0::SimdAddAcc            0      0.00%     85.53% # Type of FU issued
system.switch_cpus0.iq.FU_type_0::SimdAlu            0      0.00%     85.53% # Type of FU issued
system.switch_cpus0.iq.FU_type_0::SimdCmp            0      0.00%     85.53% # Type of FU issued
system.switch_cpus0.iq.FU_type_0::SimdCvt            0      0.00%     85.53% # Type of FU issued
system.switch_cpus0.iq.FU_type_0::SimdMisc            0      0.00%     85.53% # Type of FU issued
system.switch_cpus0.iq.FU_type_0::SimdMult            0      0.00%     85.53% # Type of FU issued
system.switch_cpus0.iq.FU_type_0::SimdMultAcc            0      0.00%     85.53% # Type of FU issued
system.switch_cpus0.iq.FU_type_0::SimdShift            0      0.00%     85.53% # Type of FU issued
system.switch_cpus0.iq.FU_type_0::SimdShiftAcc            0      0.00%     85.53% # Type of FU issued
system.switch_cpus0.iq.FU_type_0::SimdSqrt            0      0.00%     85.53% # Type of FU issued
system.switch_cpus0.iq.FU_type_0::SimdFloatAdd            0      0.00%     85.53% # Type of FU issued
system.switch_cpus0.iq.FU_type_0::SimdFloatAlu            0      0.00%     85.53% # Type of FU issued
system.switch_cpus0.iq.FU_type_0::SimdFloatCmp            0      0.00%     85.53% # Type of FU issued
system.switch_cpus0.iq.FU_type_0::SimdFloatCvt            0      0.00%     85.53% # Type of FU issued
system.switch_cpus0.iq.FU_type_0::SimdFloatDiv            0      0.00%     85.53% # Type of FU issued
system.switch_cpus0.iq.FU_type_0::SimdFloatMisc        16907      0.01%     85.54% # Type of FU issued
system.switch_cpus0.iq.FU_type_0::SimdFloatMult            0      0.00%     85.54% # Type of FU issued
system.switch_cpus0.iq.FU_type_0::SimdFloatMultAcc            0      0.00%     85.54% # Type of FU issued
system.switch_cpus0.iq.FU_type_0::SimdFloatSqrt            0      0.00%     85.54% # Type of FU issued
system.switch_cpus0.iq.FU_type_0::MemRead     12790008      9.27%     94.81% # Type of FU issued
system.switch_cpus0.iq.FU_type_0::MemWrite      7161223      5.19%    100.00% # Type of FU issued
system.switch_cpus0.iq.FU_type_0::IprAccess            0      0.00%    100.00% # Type of FU issued
system.switch_cpus0.iq.FU_type_0::InstPrefetch            0      0.00%    100.00% # Type of FU issued
system.switch_cpus0.iq.FU_type_0::total     137959185                       # Type of FU issued
system.switch_cpus0.iq.rate                  0.580267                       # Inst issue rate
system.switch_cpus0.iq.fu_busy_cnt             697561                       # FU busy when requested
system.switch_cpus0.iq.fu_busy_rate          0.005056                       # FU busy rate (busy events/executed inst)
system.switch_cpus0.iq.int_inst_queue_reads    496970577                       # Number of integer instruction queue reads
system.switch_cpus0.iq.int_inst_queue_writes    168086160                       # Number of integer instruction queue writes
system.switch_cpus0.iq.int_inst_queue_wakeup_accesses    134976399                       # Number of integer instruction queue wakeup accesses
system.switch_cpus0.iq.fp_inst_queue_reads            0                       # Number of floating instruction queue reads
system.switch_cpus0.iq.fp_inst_queue_writes            0                       # Number of floating instruction queue writes
system.switch_cpus0.iq.fp_inst_queue_wakeup_accesses            0                       # Number of floating instruction queue wakeup accesses
system.switch_cpus0.iq.int_alu_accesses     138656746                       # Number of integer alu accesses
system.switch_cpus0.iq.fp_alu_accesses              0                       # Number of floating point alu accesses
system.switch_cpus0.iew.lsq.thread0.forwLoads       270815                       # Number of loads that had data forwarded from stores
system.switch_cpus0.iew.lsq.thread0.invAddrLoads            0                       # Number of loads ignored due to an invalid address
system.switch_cpus0.iew.lsq.thread0.squashedLoads      2669358                       # Number of loads squashed
system.switch_cpus0.iew.lsq.thread0.ignoredResponses            6                       # Number of memory responses ignored because the instruction is squashed
system.switch_cpus0.iew.lsq.thread0.memOrderViolation          208                       # Number of memory ordering violations
system.switch_cpus0.iew.lsq.thread0.squashedStores        92855                       # Number of stores squashed
system.switch_cpus0.iew.lsq.thread0.invAddrSwpfs            0                       # Number of software prefetches ignored due to an invalid address
system.switch_cpus0.iew.lsq.thread0.blockedLoads            0                       # Number of blocked loads due to partial load-store forwarding
system.switch_cpus0.iew.lsq.thread0.rescheduledLoads            0                       # Number of loads that were rescheduled
system.switch_cpus0.iew.lsq.thread0.cacheBlocked            0                       # Number of times an access to memory failed due to the cache being blocked
system.switch_cpus0.iew.iewIdleCycles               0                       # Number of cycles IEW is idle
system.switch_cpus0.iew.iewSquashCycles       4024208                       # Number of cycles IEW is squashing
system.switch_cpus0.iew.iewBlockCycles         801707                       # Number of cycles IEW is blocking
system.switch_cpus0.iew.iewUnblockCycles       113403                       # Number of cycles IEW is unblocking
system.switch_cpus0.iew.iewDispatchedInsts    146089740                       # Number of instructions dispatched to IQ
system.switch_cpus0.iew.iewDispSquashedInsts         8390                       # Number of squashed instructions skipped by dispatch
system.switch_cpus0.iew.iewDispLoadInsts     13862779                       # Number of dispatched load instructions
system.switch_cpus0.iew.iewDispStoreInsts      7183883                       # Number of dispatched store instructions
system.switch_cpus0.iew.iewDispNonSpecInsts        16907                       # Number of dispatched non-speculative instructions
system.switch_cpus0.iew.iewIQFullEvents         98891                       # Number of times the IQ has become full, causing a stall
system.switch_cpus0.iew.iewLSQFullEvents            0                       # Number of times the LSQ has become full, causing a stall
system.switch_cpus0.iew.memOrderViolationEvents          208                       # Number of memory order violations
system.switch_cpus0.iew.predictedTakenIncorrect      1055386                       # Number of branches that were predicted taken incorrectly
system.switch_cpus0.iew.predictedNotTakenIncorrect      1101660                       # Number of branches that were predicted not taken incorrectly
system.switch_cpus0.iew.branchMispredicts      2157046                       # Number of branch mispredicts detected at execute
system.switch_cpus0.iew.iewExecutedInsts    135970138                       # Number of executed instructions
system.switch_cpus0.iew.iewExecLoadInsts     12340146                       # Number of load instructions executed
system.switch_cpus0.iew.iewExecSquashedInsts      1989046                       # Number of squashed instructions skipped in execute
system.switch_cpus0.iew.exec_swp                    0                       # number of swp insts executed
system.switch_cpus0.iew.exec_nop                    3                       # number of nop insts executed
system.switch_cpus0.iew.exec_refs            19501225                       # number of memory reference insts executed
system.switch_cpus0.iew.exec_branches        19196248                       # Number of branches executed
system.switch_cpus0.iew.exec_stores           7161079                       # Number of stores executed
system.switch_cpus0.iew.exec_rate            0.571901                       # Inst execution rate
system.switch_cpus0.iew.wb_sent             134976444                       # cumulative count of insts sent to commit
system.switch_cpus0.iew.wb_count            134976399                       # cumulative count of insts written-back
system.switch_cpus0.iew.wb_producers         77885486                       # num instructions producing a value
system.switch_cpus0.iew.wb_consumers        216938939                       # num instructions consuming a value
system.switch_cpus0.iew.wb_penalized                0                       # number of instrctions required to write to 'other' IQ
system.switch_cpus0.iew.wb_rate              0.567722                       # insts written-back per cycle
system.switch_cpus0.iew.wb_fanout            0.359020                       # average fanout of values written-back
system.switch_cpus0.iew.wb_penalized_rate            0                       # fraction of instructions written-back that wrote to 'other' IQ
system.switch_cpus0.commit.commitCommittedInsts    100000001                       # The number of committed instructions
system.switch_cpus0.commit.commitCommittedOps    123129333                       # The number of committed instructions
system.switch_cpus0.commit.commitSquashedInsts     22960747                       # The number of squashed insts skipped by commit
system.switch_cpus0.commit.commitNonSpecStalls        33814                       # The number of times commit has been forced to stall to communicate backwards
system.switch_cpus0.commit.branchMispredicts      2002323                       # The number of times a branch was mispredicted
system.switch_cpus0.commit.committed_per_cycle::samples    216213382                       # Number of insts commited each cycle
system.switch_cpus0.commit.committed_per_cycle::mean     0.569481                       # Number of insts commited each cycle
system.switch_cpus0.commit.committed_per_cycle::stdev     1.369171                       # Number of insts commited each cycle
system.switch_cpus0.commit.committed_per_cycle::underflows            0      0.00%      0.00% # Number of insts commited each cycle
system.switch_cpus0.commit.committed_per_cycle::0    164360076     76.02%     76.02% # Number of insts commited each cycle
system.switch_cpus0.commit.committed_per_cycle::1     23869584     11.04%     87.06% # Number of insts commited each cycle
system.switch_cpus0.commit.committed_per_cycle::2     12381905      5.73%     92.78% # Number of insts commited each cycle
system.switch_cpus0.commit.committed_per_cycle::3      3980066      1.84%     94.62% # Number of insts commited each cycle
system.switch_cpus0.commit.committed_per_cycle::4      5464845      2.53%     97.15% # Number of insts commited each cycle
system.switch_cpus0.commit.committed_per_cycle::5      1834847      0.85%     98.00% # Number of insts commited each cycle
system.switch_cpus0.commit.committed_per_cycle::6      1058253      0.49%     98.49% # Number of insts commited each cycle
system.switch_cpus0.commit.committed_per_cycle::7       937840      0.43%     98.92% # Number of insts commited each cycle
system.switch_cpus0.commit.committed_per_cycle::8      2325966      1.08%    100.00% # Number of insts commited each cycle
system.switch_cpus0.commit.committed_per_cycle::overflows            0      0.00%    100.00% # Number of insts commited each cycle
system.switch_cpus0.commit.committed_per_cycle::min_value            0                       # Number of insts commited each cycle
system.switch_cpus0.commit.committed_per_cycle::max_value            8                       # Number of insts commited each cycle
system.switch_cpus0.commit.committed_per_cycle::total    216213382                       # Number of insts commited each cycle
system.switch_cpus0.commit.committedInsts    100000001                       # Number of instructions committed
system.switch_cpus0.commit.committedOps     123129333                       # Number of ops (including micro ops) committed
system.switch_cpus0.commit.swp_count                0                       # Number of s/w prefetches committed
system.switch_cpus0.commit.refs              18284449                       # Number of memory references committed
system.switch_cpus0.commit.loads             11193421                       # Number of loads committed
system.switch_cpus0.commit.membars              16907                       # Number of memory barriers committed
system.switch_cpus0.commit.branches          17772297                       # Number of branches committed
system.switch_cpus0.commit.fp_insts                 0                       # Number of committed floating point instructions.
system.switch_cpus0.commit.int_insts        110930175                       # Number of committed integer instructions.
system.switch_cpus0.commit.function_calls      2539549                       # Number of function calls committed.
system.switch_cpus0.commit.bw_lim_events      2325966                       # number cycles where commit BW limit reached
system.switch_cpus0.commit.bw_limited               0                       # number of insts not committed due to BW limits
system.switch_cpus0.rob.rob_reads           359977496                       # The number of ROB reads
system.switch_cpus0.rob.rob_writes          296204400                       # The number of ROB writes
system.switch_cpus0.timesIdled                2879893                       # Number of times that the entire CPU went into an idle state and unscheduled itself
system.switch_cpus0.idleCycles               17513423                       # Total number of cycles that the CPU has spent unscheduled due to idling
system.switch_cpus0.committedInsts          100000001                       # Number of Instructions Simulated
system.switch_cpus0.committedOps            123129333                       # Number of Ops (including micro ops) Simulated
system.switch_cpus0.committedInsts_total    100000001                       # Number of Instructions Simulated
system.switch_cpus0.cpi                      2.377510                       # CPI: Cycles Per Instruction
system.switch_cpus0.cpi_total                2.377510                       # CPI: Total CPI of All Threads
system.switch_cpus0.ipc                      0.420608                       # IPC: Instructions Per Cycle
system.switch_cpus0.ipc_total                0.420608                       # IPC: Total IPC of All Threads
system.switch_cpus0.int_regfile_reads       611558557                       # number of integer regfile reads
system.switch_cpus0.int_regfile_writes      188894106                       # number of integer regfile writes
system.switch_cpus0.misc_regfile_reads      135808622                       # number of misc regfile reads
system.switch_cpus0.misc_regfile_writes         33814                       # number of misc regfile writes
system.switch_cpus1.dtb.inst_hits                   0                       # ITB inst hits
system.switch_cpus1.dtb.inst_misses                 0                       # ITB inst misses
system.switch_cpus1.dtb.read_hits                   0                       # DTB read hits
system.switch_cpus1.dtb.read_misses                 0                       # DTB read misses
system.switch_cpus1.dtb.write_hits                  0                       # DTB write hits
system.switch_cpus1.dtb.write_misses                0                       # DTB write misses
system.switch_cpus1.dtb.flush_tlb                   0                       # Number of times complete TLB was flushed
system.switch_cpus1.dtb.flush_tlb_mva               0                       # Number of times TLB was flushed by MVA
system.switch_cpus1.dtb.flush_tlb_mva_asid            0                       # Number of times TLB was flushed by MVA & ASID
system.switch_cpus1.dtb.flush_tlb_asid              0                       # Number of times TLB was flushed by ASID
system.switch_cpus1.dtb.flush_entries               0                       # Number of entries that have been flushed from TLB
system.switch_cpus1.dtb.align_faults                0                       # Number of TLB faults due to alignment restrictions
system.switch_cpus1.dtb.prefetch_faults             0                       # Number of TLB faults due to prefetch
system.switch_cpus1.dtb.domain_faults               0                       # Number of TLB faults due to domain restrictions
system.switch_cpus1.dtb.perms_faults                0                       # Number of TLB faults due to permissions restrictions
system.switch_cpus1.dtb.read_accesses               0                       # DTB read accesses
system.switch_cpus1.dtb.write_accesses              0                       # DTB write accesses
system.switch_cpus1.dtb.inst_accesses               0                       # ITB inst accesses
system.switch_cpus1.dtb.hits                        0                       # DTB hits
system.switch_cpus1.dtb.misses                      0                       # DTB misses
system.switch_cpus1.dtb.accesses                    0                       # DTB accesses
system.switch_cpus1.itb.inst_hits                   0                       # ITB inst hits
system.switch_cpus1.itb.inst_misses                 0                       # ITB inst misses
system.switch_cpus1.itb.read_hits                   0                       # DTB read hits
system.switch_cpus1.itb.read_misses                 0                       # DTB read misses
system.switch_cpus1.itb.write_hits                  0                       # DTB write hits
system.switch_cpus1.itb.write_misses                0                       # DTB write misses
system.switch_cpus1.itb.flush_tlb                   0                       # Number of times complete TLB was flushed
system.switch_cpus1.itb.flush_tlb_mva               0                       # Number of times TLB was flushed by MVA
system.switch_cpus1.itb.flush_tlb_mva_asid            0                       # Number of times TLB was flushed by MVA & ASID
system.switch_cpus1.itb.flush_tlb_asid              0                       # Number of times TLB was flushed by ASID
system.switch_cpus1.itb.flush_entries               0                       # Number of entries that have been flushed from TLB
system.switch_cpus1.itb.align_faults                0                       # Number of TLB faults due to alignment restrictions
system.switch_cpus1.itb.prefetch_faults             0                       # Number of TLB faults due to prefetch
system.switch_cpus1.itb.domain_faults               0                       # Number of TLB faults due to domain restrictions
system.switch_cpus1.itb.perms_faults                0                       # Number of TLB faults due to permissions restrictions
system.switch_cpus1.itb.read_accesses               0                       # DTB read accesses
system.switch_cpus1.itb.write_accesses              0                       # DTB write accesses
system.switch_cpus1.itb.inst_accesses               0                       # ITB inst accesses
system.switch_cpus1.itb.hits                        0                       # DTB hits
system.switch_cpus1.itb.misses                      0                       # DTB misses
system.switch_cpus1.itb.accesses                    0                       # DTB accesses
system.cpu1.workload.num_syscalls                   0                       # Number of system calls
system.switch_cpus1.numCycles               237751013                       # number of cpu cycles simulated
system.switch_cpus1.numWorkItemsStarted             0                       # number of work items this cpu started
system.switch_cpus1.numWorkItemsCompleted            0                       # number of work items this cpu completed
system.switch_cpus1.BPredUnit.lookups        19566121                       # Number of BP lookups
system.switch_cpus1.BPredUnit.condPredicted     15997231                       # Number of conditional branches predicted
system.switch_cpus1.BPredUnit.condIncorrect      1908457                       # Number of conditional branches incorrect
system.switch_cpus1.BPredUnit.BTBLookups      8000648                       # Number of BTB lookups
system.switch_cpus1.BPredUnit.BTBHits         7675564                       # Number of BTB hits
system.switch_cpus1.BPredUnit.BTBCorrect            0                       # Number of correct BTB predictions (this stat may not work properly.
system.switch_cpus1.BPredUnit.usedRAS         2003875                       # Number of times the RAS was used to get a target.
system.switch_cpus1.BPredUnit.RASInCorrect        85980                       # Number of incorrect RAS predictions.
system.switch_cpus1.fetch.icacheStallCycles    188436092                       # Number of cycles fetch is stalled on an Icache miss
system.switch_cpus1.fetch.Insts             109937640                       # Number of instructions fetch has processed
system.switch_cpus1.fetch.Branches           19566121                       # Number of branches that fetch encountered
system.switch_cpus1.fetch.predictedBranches      9679439                       # Number of branches that fetch has predicted taken
system.switch_cpus1.fetch.Cycles             22898406                       # Number of cycles fetch has run and was not squashing or blocked
system.switch_cpus1.fetch.SquashCycles        5299649                       # Number of cycles fetch has spent squashing
system.switch_cpus1.fetch.BlockedCycles       4279103                       # Number of cycles fetch has spent blocked
system.switch_cpus1.fetch.CacheLines         11546209                       # Number of cache lines fetched
system.switch_cpus1.fetch.IcacheSquashes      1909811                       # Number of outstanding Icache misses that were squashed
system.switch_cpus1.fetch.rateDist::samples    218973029                       # Number of instructions fetched each cycle (Total)
system.switch_cpus1.fetch.rateDist::mean     0.615650                       # Number of instructions fetched each cycle (Total)
system.switch_cpus1.fetch.rateDist::stdev     1.960118                       # Number of instructions fetched each cycle (Total)
system.switch_cpus1.fetch.rateDist::underflows            0      0.00%      0.00% # Number of instructions fetched each cycle (Total)
system.switch_cpus1.fetch.rateDist::0       196074623     89.54%     89.54% # Number of instructions fetched each cycle (Total)
system.switch_cpus1.fetch.rateDist::1         1098957      0.50%     90.04% # Number of instructions fetched each cycle (Total)
system.switch_cpus1.fetch.rateDist::2         1675269      0.77%     90.81% # Number of instructions fetched each cycle (Total)
system.switch_cpus1.fetch.rateDist::3         2288823      1.05%     91.85% # Number of instructions fetched each cycle (Total)
system.switch_cpus1.fetch.rateDist::4         2352406      1.07%     92.93% # Number of instructions fetched each cycle (Total)
system.switch_cpus1.fetch.rateDist::5         1966594      0.90%     93.83% # Number of instructions fetched each cycle (Total)
system.switch_cpus1.fetch.rateDist::6         1116766      0.51%     94.34% # Number of instructions fetched each cycle (Total)
system.switch_cpus1.fetch.rateDist::7         1645047      0.75%     95.09% # Number of instructions fetched each cycle (Total)
system.switch_cpus1.fetch.rateDist::8        10754544      4.91%    100.00% # Number of instructions fetched each cycle (Total)
system.switch_cpus1.fetch.rateDist::overflows            0      0.00%    100.00% # Number of instructions fetched each cycle (Total)
system.switch_cpus1.fetch.rateDist::min_value            0                       # Number of instructions fetched each cycle (Total)
system.switch_cpus1.fetch.rateDist::max_value            8                       # Number of instructions fetched each cycle (Total)
system.switch_cpus1.fetch.rateDist::total    218973029                       # Number of instructions fetched each cycle (Total)
system.switch_cpus1.fetch.branchRate         0.082297                       # Number of branch fetches per cycle
system.switch_cpus1.fetch.rate               0.462407                       # Number of inst fetches per cycle
system.switch_cpus1.decode.IdleCycles       186282479                       # Number of cycles decode is idle
system.switch_cpus1.decode.BlockedCycles      6450684                       # Number of cycles decode is blocked
system.switch_cpus1.decode.RunCycles         22836731                       # Number of cycles decode is running
system.switch_cpus1.decode.UnblockCycles        43938                       # Number of cycles decode is unblocking
system.switch_cpus1.decode.SquashCycles       3359188                       # Number of cycles decode is squashing
system.switch_cpus1.decode.BranchResolved      3228840                       # Number of times decode resolved a branch
system.switch_cpus1.decode.BranchMispred          241                       # Number of times decode detected a branch misprediction
system.switch_cpus1.decode.DecodedInsts     134698853                       # Number of instructions handled by decode
system.switch_cpus1.decode.SquashedInsts         1331                       # Number of squashed instructions handled by decode
system.switch_cpus1.rename.SquashCycles       3359188                       # Number of cycles rename is squashing
system.switch_cpus1.rename.IdleCycles       186810537                       # Number of cycles rename is idle
system.switch_cpus1.rename.BlockCycles        1276203                       # Number of cycles rename is blocking
system.switch_cpus1.rename.serializeStallCycles      3844898                       # count of cycles rename stalled for serializing inst
system.switch_cpus1.rename.RunCycles         22361449                       # Number of cycles rename is running
system.switch_cpus1.rename.UnblockCycles      1320745                       # Number of cycles rename is unblocking
system.switch_cpus1.rename.RenamedInsts     134613240                       # Number of instructions processed by rename
system.switch_cpus1.rename.ROBFullEvents          907                       # Number of times rename has blocked due to ROB full
system.switch_cpus1.rename.IQFullEvents        297831                       # Number of times rename has blocked due to IQ full
system.switch_cpus1.rename.LSQFullEvents       528059                       # Number of times rename has blocked due to LSQ full
system.switch_cpus1.rename.FullRegisterEvents          738                       # Number of times there has been no free registers
system.switch_cpus1.rename.RenamedOperands    187060305                       # Number of destination operands rename has renamed
system.switch_cpus1.rename.RenameLookups    626498336                       # Number of register rename lookups that rename has made
system.switch_cpus1.rename.int_rename_lookups    626498336                       # Number of integer rename lookups
system.switch_cpus1.rename.CommittedMaps    161601435                       # Number of HB maps that are committed
system.switch_cpus1.rename.UndoneMaps        25458870                       # Number of HB maps that are undone due to squashing
system.switch_cpus1.rename.serializingInsts        37034                       # count of serializing insts renamed
system.switch_cpus1.rename.tempSerializingInsts        21258                       # count of temporary serializing insts renamed
system.switch_cpus1.rename.skidInsts          3845458                       # count of insts added to the skid buffer
system.switch_cpus1.memDep0.insertedLoads     12783128                       # Number of loads inserted to the mem dependence unit.
system.switch_cpus1.memDep0.insertedStores      7008104                       # Number of stores inserted to the mem dependence unit.
system.switch_cpus1.memDep0.conflictingLoads       123802                       # Number of conflicting loads.
system.switch_cpus1.memDep0.conflictingStores      1522239                       # Number of conflicting stores.
system.switch_cpus1.iq.iqInstsAdded         134426007                       # Number of instructions added to the IQ (excludes non-spec)
system.switch_cpus1.iq.iqNonSpecInstsAdded        37022                       # Number of non-speculative instructions added to the IQ
system.switch_cpus1.iq.iqInstsIssued        127468958                       # Number of instructions issued
system.switch_cpus1.iq.iqSquashedInstsIssued        25846                       # Number of squashed instructions issued
system.switch_cpus1.iq.iqSquashedInstsExamined     15350520                       # Number of squashed instructions iterated over during squash; mainly for profiling
system.switch_cpus1.iq.iqSquashedOperandsExamined     36486054                       # Number of squashed operands that are examined and possibly removed from graph
system.switch_cpus1.iq.iqSquashedNonSpecRemoved         5470                       # Number of squashed non-spec instructions that were removed
system.switch_cpus1.iq.issued_per_cycle::samples    218973029                       # Number of insts issued each cycle
system.switch_cpus1.iq.issued_per_cycle::mean     0.582122                       # Number of insts issued each cycle
system.switch_cpus1.iq.issued_per_cycle::stdev     1.271303                       # Number of insts issued each cycle
system.switch_cpus1.iq.issued_per_cycle::underflows            0      0.00%      0.00% # Number of insts issued each cycle
system.switch_cpus1.iq.issued_per_cycle::0    165074654     75.39%     75.39% # Number of insts issued each cycle
system.switch_cpus1.iq.issued_per_cycle::1     21973940     10.03%     85.42% # Number of insts issued each cycle
system.switch_cpus1.iq.issued_per_cycle::2     11363621      5.19%     90.61% # Number of insts issued each cycle
system.switch_cpus1.iq.issued_per_cycle::3      8562378      3.91%     94.52% # Number of insts issued each cycle
system.switch_cpus1.iq.issued_per_cycle::4      6656372      3.04%     97.56% # Number of insts issued each cycle
system.switch_cpus1.iq.issued_per_cycle::5      2674825      1.22%     98.78% # Number of insts issued each cycle
system.switch_cpus1.iq.issued_per_cycle::6      1698420      0.78%     99.56% # Number of insts issued each cycle
system.switch_cpus1.iq.issued_per_cycle::7       860043      0.39%     99.95% # Number of insts issued each cycle
system.switch_cpus1.iq.issued_per_cycle::8       108776      0.05%    100.00% # Number of insts issued each cycle
system.switch_cpus1.iq.issued_per_cycle::overflows            0      0.00%    100.00% # Number of insts issued each cycle
system.switch_cpus1.iq.issued_per_cycle::min_value            0                       # Number of insts issued each cycle
system.switch_cpus1.iq.issued_per_cycle::max_value            8                       # Number of insts issued each cycle
system.switch_cpus1.iq.issued_per_cycle::total    218973029                       # Number of insts issued each cycle
system.switch_cpus1.iq.fu_full::No_OpClass            0      0.00%      0.00% # attempts to use FU when none available
system.switch_cpus1.iq.fu_full::IntAlu          22804     10.08%     10.08% # attempts to use FU when none available
system.switch_cpus1.iq.fu_full::IntMult             0      0.00%     10.08% # attempts to use FU when none available
system.switch_cpus1.iq.fu_full::IntDiv              0      0.00%     10.08% # attempts to use FU when none available
system.switch_cpus1.iq.fu_full::FloatAdd            0      0.00%     10.08% # attempts to use FU when none available
system.switch_cpus1.iq.fu_full::FloatCmp            0      0.00%     10.08% # attempts to use FU when none available
system.switch_cpus1.iq.fu_full::FloatCvt            0      0.00%     10.08% # attempts to use FU when none available
system.switch_cpus1.iq.fu_full::FloatMult            0      0.00%     10.08% # attempts to use FU when none available
system.switch_cpus1.iq.fu_full::FloatDiv            0      0.00%     10.08% # attempts to use FU when none available
system.switch_cpus1.iq.fu_full::FloatSqrt            0      0.00%     10.08% # attempts to use FU when none available
system.switch_cpus1.iq.fu_full::SimdAdd             0      0.00%     10.08% # attempts to use FU when none available
system.switch_cpus1.iq.fu_full::SimdAddAcc            0      0.00%     10.08% # attempts to use FU when none available
system.switch_cpus1.iq.fu_full::SimdAlu             0      0.00%     10.08% # attempts to use FU when none available
system.switch_cpus1.iq.fu_full::SimdCmp             0      0.00%     10.08% # attempts to use FU when none available
system.switch_cpus1.iq.fu_full::SimdCvt             0      0.00%     10.08% # attempts to use FU when none available
system.switch_cpus1.iq.fu_full::SimdMisc            0      0.00%     10.08% # attempts to use FU when none available
system.switch_cpus1.iq.fu_full::SimdMult            0      0.00%     10.08% # attempts to use FU when none available
system.switch_cpus1.iq.fu_full::SimdMultAcc            0      0.00%     10.08% # attempts to use FU when none available
system.switch_cpus1.iq.fu_full::SimdShift            0      0.00%     10.08% # attempts to use FU when none available
system.switch_cpus1.iq.fu_full::SimdShiftAcc            0      0.00%     10.08% # attempts to use FU when none available
system.switch_cpus1.iq.fu_full::SimdSqrt            0      0.00%     10.08% # attempts to use FU when none available
system.switch_cpus1.iq.fu_full::SimdFloatAdd            0      0.00%     10.08% # attempts to use FU when none available
system.switch_cpus1.iq.fu_full::SimdFloatAlu            0      0.00%     10.08% # attempts to use FU when none available
system.switch_cpus1.iq.fu_full::SimdFloatCmp            0      0.00%     10.08% # attempts to use FU when none available
system.switch_cpus1.iq.fu_full::SimdFloatCvt            0      0.00%     10.08% # attempts to use FU when none available
system.switch_cpus1.iq.fu_full::SimdFloatDiv            0      0.00%     10.08% # attempts to use FU when none available
system.switch_cpus1.iq.fu_full::SimdFloatMisc            0      0.00%     10.08% # attempts to use FU when none available
system.switch_cpus1.iq.fu_full::SimdFloatMult            0      0.00%     10.08% # attempts to use FU when none available
system.switch_cpus1.iq.fu_full::SimdFloatMultAcc            0      0.00%     10.08% # attempts to use FU when none available
system.switch_cpus1.iq.fu_full::SimdFloatSqrt            0      0.00%     10.08% # attempts to use FU when none available
system.switch_cpus1.iq.fu_full::MemRead         83813     37.06%     47.14% # attempts to use FU when none available
system.switch_cpus1.iq.fu_full::MemWrite       119564     52.86%    100.00% # attempts to use FU when none available
system.switch_cpus1.iq.fu_full::IprAccess            0      0.00%    100.00% # attempts to use FU when none available
system.switch_cpus1.iq.fu_full::InstPrefetch            0      0.00%    100.00% # attempts to use FU when none available
system.switch_cpus1.iq.FU_type_0::No_OpClass            0      0.00%      0.00% # Type of FU issued
system.switch_cpus1.iq.FU_type_0::IntAlu    106795932     83.78%     83.78% # Type of FU issued
system.switch_cpus1.iq.FU_type_0::IntMult      1976718      1.55%     85.33% # Type of FU issued
system.switch_cpus1.iq.FU_type_0::IntDiv            0      0.00%     85.33% # Type of FU issued
system.switch_cpus1.iq.FU_type_0::FloatAdd            0      0.00%     85.33% # Type of FU issued
system.switch_cpus1.iq.FU_type_0::FloatCmp            0      0.00%     85.33% # Type of FU issued
system.switch_cpus1.iq.FU_type_0::FloatCvt            0      0.00%     85.33% # Type of FU issued
system.switch_cpus1.iq.FU_type_0::FloatMult            0      0.00%     85.33% # Type of FU issued
system.switch_cpus1.iq.FU_type_0::FloatDiv            0      0.00%     85.33% # Type of FU issued
system.switch_cpus1.iq.FU_type_0::FloatSqrt            0      0.00%     85.33% # Type of FU issued
system.switch_cpus1.iq.FU_type_0::SimdAdd            0      0.00%     85.33% # Type of FU issued
system.switch_cpus1.iq.FU_type_0::SimdAddAcc            0      0.00%     85.33% # Type of FU issued
system.switch_cpus1.iq.FU_type_0::SimdAlu            0      0.00%     85.33% # Type of FU issued
system.switch_cpus1.iq.FU_type_0::SimdCmp            0      0.00%     85.33% # Type of FU issued
system.switch_cpus1.iq.FU_type_0::SimdCvt            0      0.00%     85.33% # Type of FU issued
system.switch_cpus1.iq.FU_type_0::SimdMisc            0      0.00%     85.33% # Type of FU issued
system.switch_cpus1.iq.FU_type_0::SimdMult            0      0.00%     85.33% # Type of FU issued
system.switch_cpus1.iq.FU_type_0::SimdMultAcc            0      0.00%     85.33% # Type of FU issued
system.switch_cpus1.iq.FU_type_0::SimdShift            0      0.00%     85.33% # Type of FU issued
system.switch_cpus1.iq.FU_type_0::SimdShiftAcc            0      0.00%     85.33% # Type of FU issued
system.switch_cpus1.iq.FU_type_0::SimdSqrt            0      0.00%     85.33% # Type of FU issued
system.switch_cpus1.iq.FU_type_0::SimdFloatAdd            0      0.00%     85.33% # Type of FU issued
system.switch_cpus1.iq.FU_type_0::SimdFloatAlu            0      0.00%     85.33% # Type of FU issued
system.switch_cpus1.iq.FU_type_0::SimdFloatCmp            0      0.00%     85.33% # Type of FU issued
system.switch_cpus1.iq.FU_type_0::SimdFloatCvt            0      0.00%     85.33% # Type of FU issued
system.switch_cpus1.iq.FU_type_0::SimdFloatDiv            0      0.00%     85.33% # Type of FU issued
system.switch_cpus1.iq.FU_type_0::SimdFloatMisc        15776      0.01%     85.35% # Type of FU issued
system.switch_cpus1.iq.FU_type_0::SimdFloatMult            0      0.00%     85.35% # Type of FU issued
system.switch_cpus1.iq.FU_type_0::SimdFloatMultAcc            0      0.00%     85.35% # Type of FU issued
system.switch_cpus1.iq.FU_type_0::SimdFloatSqrt            0      0.00%     85.35% # Type of FU issued
system.switch_cpus1.iq.FU_type_0::MemRead     11726509      9.20%     94.54% # Type of FU issued
system.switch_cpus1.iq.FU_type_0::MemWrite      6954023      5.46%    100.00% # Type of FU issued
system.switch_cpus1.iq.FU_type_0::IprAccess            0      0.00%    100.00% # Type of FU issued
system.switch_cpus1.iq.FU_type_0::InstPrefetch            0      0.00%    100.00% # Type of FU issued
system.switch_cpus1.iq.FU_type_0::total     127468958                       # Type of FU issued
system.switch_cpus1.iq.rate                  0.536145                       # Inst issue rate
system.switch_cpus1.iq.fu_busy_cnt             226181                       # FU busy when requested
system.switch_cpus1.iq.fu_busy_rate          0.001774                       # FU busy rate (busy events/executed inst)
system.switch_cpus1.iq.int_inst_queue_reads    474162972                       # Number of integer instruction queue reads
system.switch_cpus1.iq.int_inst_queue_writes    149813873                       # Number of integer instruction queue writes
system.switch_cpus1.iq.int_inst_queue_wakeup_accesses    125551204                       # Number of integer instruction queue wakeup accesses
system.switch_cpus1.iq.fp_inst_queue_reads            0                       # Number of floating instruction queue reads
system.switch_cpus1.iq.fp_inst_queue_writes            0                       # Number of floating instruction queue writes
system.switch_cpus1.iq.fp_inst_queue_wakeup_accesses            0                       # Number of floating instruction queue wakeup accesses
system.switch_cpus1.iq.int_alu_accesses     127695139                       # Number of integer alu accesses
system.switch_cpus1.iq.fp_alu_accesses              0                       # Number of floating point alu accesses
system.switch_cpus1.iew.lsq.thread0.forwLoads       296870                       # Number of loads that had data forwarded from stores
system.switch_cpus1.iew.lsq.thread0.invAddrLoads            0                       # Number of loads ignored due to an invalid address
system.switch_cpus1.iew.lsq.thread0.squashedLoads      2119216                       # Number of loads squashed
system.switch_cpus1.iew.lsq.thread0.ignoredResponses           33                       # Number of memory responses ignored because the instruction is squashed
system.switch_cpus1.iew.lsq.thread0.memOrderViolation          324                       # Number of memory ordering violations
system.switch_cpus1.iew.lsq.thread0.squashedStores       172891                       # Number of stores squashed
system.switch_cpus1.iew.lsq.thread0.invAddrSwpfs            0                       # Number of software prefetches ignored due to an invalid address
system.switch_cpus1.iew.lsq.thread0.blockedLoads            0                       # Number of blocked loads due to partial load-store forwarding
system.switch_cpus1.iew.lsq.thread0.rescheduledLoads            0                       # Number of loads that were rescheduled
system.switch_cpus1.iew.lsq.thread0.cacheBlocked           59                       # Number of times an access to memory failed due to the cache being blocked
system.switch_cpus1.iew.iewIdleCycles               0                       # Number of cycles IEW is idle
system.switch_cpus1.iew.iewSquashCycles       3359188                       # Number of cycles IEW is squashing
system.switch_cpus1.iew.iewBlockCycles        1009683                       # Number of cycles IEW is blocking
system.switch_cpus1.iew.iewUnblockCycles       120839                       # Number of cycles IEW is unblocking
system.switch_cpus1.iew.iewDispatchedInsts    134463029                       # Number of instructions dispatched to IQ
system.switch_cpus1.iew.iewDispSquashedInsts        61701                       # Number of squashed instructions skipped by dispatch
system.switch_cpus1.iew.iewDispLoadInsts     12783128                       # Number of dispatched load instructions
system.switch_cpus1.iew.iewDispStoreInsts      7008104                       # Number of dispatched store instructions
system.switch_cpus1.iew.iewDispNonSpecInsts        21246                       # Number of dispatched non-speculative instructions
system.switch_cpus1.iew.iewIQFullEvents         89123                       # Number of times the IQ has become full, causing a stall
system.switch_cpus1.iew.iewLSQFullEvents            0                       # Number of times the LSQ has become full, causing a stall
system.switch_cpus1.iew.memOrderViolationEvents          324                       # Number of memory order violations
system.switch_cpus1.iew.predictedTakenIncorrect      1109829                       # Number of branches that were predicted taken incorrectly
system.switch_cpus1.iew.predictedNotTakenIncorrect      1088040                       # Number of branches that were predicted not taken incorrectly
system.switch_cpus1.iew.branchMispredicts      2197869                       # Number of branch mispredicts detected at execute
system.switch_cpus1.iew.iewExecutedInsts    125732253                       # Number of executed instructions
system.switch_cpus1.iew.iewExecLoadInsts     11056588                       # Number of load instructions executed
system.switch_cpus1.iew.iewExecSquashedInsts      1736705                       # Number of squashed instructions skipped in execute
system.switch_cpus1.iew.exec_swp                    0                       # number of swp insts executed
system.switch_cpus1.iew.exec_nop                    0                       # number of nop insts executed
system.switch_cpus1.iew.exec_refs            18008855                       # number of memory reference insts executed
system.switch_cpus1.iew.exec_branches        17770467                       # Number of branches executed
system.switch_cpus1.iew.exec_stores           6952267                       # Number of stores executed
system.switch_cpus1.iew.exec_rate            0.528840                       # Inst execution rate
system.switch_cpus1.iew.wb_sent             125551393                       # cumulative count of insts sent to commit
system.switch_cpus1.iew.wb_count            125551204                       # cumulative count of insts written-back
system.switch_cpus1.iew.wb_producers         72272541                       # num instructions producing a value
system.switch_cpus1.iew.wb_consumers        193608965                       # num instructions consuming a value
system.switch_cpus1.iew.wb_penalized                0                       # number of instrctions required to write to 'other' IQ
system.switch_cpus1.iew.wb_rate              0.528079                       # insts written-back per cycle
system.switch_cpus1.iew.wb_fanout            0.373291                       # average fanout of values written-back
system.switch_cpus1.iew.wb_penalized_rate            0                       # fraction of instructions written-back that wrote to 'other' IQ
system.switch_cpus1.commit.commitCommittedInsts     94641757                       # The number of committed instructions
system.switch_cpus1.commit.commitCommittedOps    116318525                       # The number of committed instructions
system.switch_cpus1.commit.commitSquashedInsts     18151523                       # The number of squashed insts skipped by commit
system.switch_cpus1.commit.commitNonSpecStalls        31552                       # The number of times commit has been forced to stall to communicate backwards
system.switch_cpus1.commit.branchMispredicts      1939644                       # The number of times a branch was mispredicted
system.switch_cpus1.commit.committed_per_cycle::samples    215613841                       # Number of insts commited each cycle
system.switch_cpus1.commit.committed_per_cycle::mean     0.539476                       # Number of insts commited each cycle
system.switch_cpus1.commit.committed_per_cycle::stdev     1.389332                       # Number of insts commited each cycle
system.switch_cpus1.commit.committed_per_cycle::underflows            0      0.00%      0.00% # Number of insts commited each cycle
system.switch_cpus1.commit.committed_per_cycle::0    168059223     77.94%     77.94% # Number of insts commited each cycle
system.switch_cpus1.commit.committed_per_cycle::1     23448425     10.88%     88.82% # Number of insts commited each cycle
system.switch_cpus1.commit.committed_per_cycle::2      8911169      4.13%     92.95% # Number of insts commited each cycle
system.switch_cpus1.commit.committed_per_cycle::3      4298924      1.99%     94.95% # Number of insts commited each cycle
system.switch_cpus1.commit.committed_per_cycle::4      3558984      1.65%     96.60% # Number of insts commited each cycle
system.switch_cpus1.commit.committed_per_cycle::5      2126167      0.99%     97.58% # Number of insts commited each cycle
system.switch_cpus1.commit.committed_per_cycle::6      1803411      0.84%     98.42% # Number of insts commited each cycle
system.switch_cpus1.commit.committed_per_cycle::7       796551      0.37%     98.79% # Number of insts commited each cycle
system.switch_cpus1.commit.committed_per_cycle::8      2610987      1.21%    100.00% # Number of insts commited each cycle
system.switch_cpus1.commit.committed_per_cycle::overflows            0      0.00%    100.00% # Number of insts commited each cycle
system.switch_cpus1.commit.committed_per_cycle::min_value            0                       # Number of insts commited each cycle
system.switch_cpus1.commit.committed_per_cycle::max_value            8                       # Number of insts commited each cycle
system.switch_cpus1.commit.committed_per_cycle::total    215613841                       # Number of insts commited each cycle
system.switch_cpus1.commit.committedInsts     94641757                       # Number of instructions committed
system.switch_cpus1.commit.committedOps     116318525                       # Number of ops (including micro ops) committed
system.switch_cpus1.commit.swp_count                0                       # Number of s/w prefetches committed
system.switch_cpus1.commit.refs              17499125                       # Number of memory references committed
system.switch_cpus1.commit.loads             10663912                       # Number of loads committed
system.switch_cpus1.commit.membars              15776                       # Number of memory barriers committed
system.switch_cpus1.commit.branches          16682612                       # Number of branches committed
system.switch_cpus1.commit.fp_insts                 0                       # Number of committed floating point instructions.
system.switch_cpus1.commit.int_insts        104845523                       # Number of committed integer instructions.
system.switch_cpus1.commit.function_calls      2373374                       # Number of function calls committed.
system.switch_cpus1.commit.bw_lim_events      2610987                       # number cycles where commit BW limit reached
system.switch_cpus1.commit.bw_limited               0                       # number of insts not committed due to BW limits
system.switch_cpus1.rob.rob_reads           347472902                       # The number of ROB reads
system.switch_cpus1.rob.rob_writes          272299485                       # The number of ROB writes
system.switch_cpus1.timesIdled                2936231                       # Number of times that the entire CPU went into an idle state and unscheduled itself
system.switch_cpus1.idleCycles               18777984                       # Total number of cycles that the CPU has spent unscheduled due to idling
system.switch_cpus1.committedInsts           94641757                       # Number of Instructions Simulated
system.switch_cpus1.committedOps            116318525                       # Number of Ops (including micro ops) Simulated
system.switch_cpus1.committedInsts_total     94641757                       # Number of Instructions Simulated
system.switch_cpus1.cpi                      2.512115                       # CPI: Cycles Per Instruction
system.switch_cpus1.cpi_total                2.512115                       # CPI: Total CPI of All Threads
system.switch_cpus1.ipc                      0.398071                       # IPC: Instructions Per Cycle
system.switch_cpus1.ipc_total                0.398071                       # IPC: Total IPC of All Threads
system.switch_cpus1.int_regfile_reads       566668430                       # number of integer regfile reads
[...]
system.cpu1.icache.ReadReq_avg_miss_latency::total 146001.437500                       # average ReadReq miss latency
system.cpu1.icache.demand_avg_miss_latency::switch_cpus1.inst 146001.437500                       # average overall miss latency
system.cpu1.icache.demand_avg_miss_latency::total 146001.437500                       # average overall miss latency
system.cpu1.icache.overall_avg_miss_latency::switch_cpus1.inst 146001.437500                       # average overall miss latency
system.cpu1.icache.overall_avg_miss_latency::total 146001.437500                       # average overall miss latency
system.cpu1.icache.blocked_cycles::no_mshrs            0                       # number of cycles access was blocked
system.cpu1.icache.blocked_cycles::no_targets            0                       # number of cycles access was blocked
system.cpu1.icache.blocked::no_mshrs                0                       # number of cycles access was blocked
system.cpu1.icache.blocked::no_targets              0                       # number of cycles access was blocked
system.cpu1.icache.avg_blocked_cycles::no_mshrs          nan                       # average number of cycles each access was blocked
system.cpu1.icache.avg_blocked_cycles::no_targets          nan                       # average number of cycles each access was blocked
system.cpu1.icache.fast_writes                      0                       # number of fast writes performed
system.cpu1.icache.cache_copies                     0                       # number of cache copies performed
system.cpu1.icache.ReadReq_mshr_hits::switch_cpus1.inst            3                       # number of ReadReq MSHR hits
system.cpu1.icache.ReadReq_mshr_hits::total            3                       # number of ReadReq MSHR hits
system.cpu1.icache.demand_mshr_hits::switch_cpus1.inst            3                       # number of demand (read+write) MSHR hits
system.cpu1.icache.demand_mshr_hits::total            3                       # number of demand (read+write) MSHR hits
system.cpu1.icache.overall_mshr_hits::switch_cpus1.inst            3                       # number of overall MSHR hits
system.cpu1.icache.overall_mshr_hits::total            3                       # number of overall MSHR hits
system.cpu1.icache.ReadReq_mshr_misses::switch_cpus1.inst           13                       # number of ReadReq MSHR misses
system.cpu1.icache.ReadReq_mshr_misses::total           13                       # number of ReadReq MSHR misses
system.cpu1.icache.demand_mshr_misses::switch_cpus1.inst           13                       # number of demand (read+write) MSHR misses
system.cpu1.icache.demand_mshr_misses::total           13                       # number of demand (read+write) MSHR misses
system.cpu1.icache.overall_mshr_misses::switch_cpus1.inst           13                       # number of overall MSHR misses
system.cpu1.icache.overall_mshr_misses::total           13                       # number of overall MSHR misses
system.cpu1.icache.ReadReq_mshr_miss_latency::switch_cpus1.inst      2041493                       # number of ReadReq MSHR miss cycles
system.cpu1.icache.ReadReq_mshr_miss_latency::total      2041493                       # number of ReadReq MSHR miss cycles
system.cpu1.icache.demand_mshr_miss_latency::switch_cpus1.inst      2041493                       # number of demand (read+write) MSHR miss cycles
system.cpu1.icache.demand_mshr_miss_latency::total      2041493                       # number of demand (read+write) MSHR miss cycles
system.cpu1.icache.overall_mshr_miss_latency::switch_cpus1.inst      2041493                       # number of overall MSHR miss cycles
system.cpu1.icache.overall_mshr_miss_latency::total      2041493                       # number of overall MSHR miss cycles
system.cpu1.icache.ReadReq_mshr_miss_rate::switch_cpus1.inst     0.000001                       # mshr miss rate for ReadReq accesses
system.cpu1.icache.ReadReq_mshr_miss_rate::total     0.000001                       # mshr miss rate for ReadReq accesses
system.cpu1.icache.demand_mshr_miss_rate::switch_cpus1.inst     0.000001                       # mshr miss rate for demand accesses
system.cpu1.icache.demand_mshr_miss_rate::total     0.000001                       # mshr miss rate for demand accesses
system.cpu1.icache.overall_mshr_miss_rate::switch_cpus1.inst     0.000001                       # mshr miss rate for overall accesses
system.cpu1.icache.overall_mshr_miss_rate::total     0.000001                       # mshr miss rate for overall accesses
system.cpu1.icache.ReadReq_avg_mshr_miss_latency::switch_cpus1.inst 157037.923077                       # average ReadReq mshr miss latency
system.cpu1.icache.ReadReq_avg_mshr_miss_latency::total 157037.923077                       # average ReadReq mshr miss latency
system.cpu1.icache.demand_avg_mshr_miss_latency::switch_cpus1.inst 157037.923077                       # average overall mshr miss latency
system.cpu1.icache.demand_avg_mshr_miss_latency::total 157037.923077                       # average overall mshr miss latency
system.cpu1.icache.overall_avg_mshr_miss_latency::switch_cpus1.inst 157037.923077                       # average overall mshr miss latency
system.cpu1.icache.overall_avg_mshr_miss_latency::total 157037.923077                       # average overall mshr miss latency
system.cpu1.icache.no_allocate_misses               0                       # Number of misses that were no-allocate
system.cpu1.dcache.replacements                 49697                       # number of replacements
system.cpu1.dcache.tagsinuse                      256                       # Cycle average of tags in use
system.cpu1.dcache.total_refs               171035885                       # Total number of references to valid blocks.
system.cpu1.dcache.sampled_refs                 49953                       # Sample count of references to valid blocks.
system.cpu1.dcache.avg_refs               3423.936200                       # Average number of references to valid blocks.
system.cpu1.dcache.warmup_cycle                     0                       # Cycle when the warmup percentage was hit.
system.cpu1.dcache.occ_blocks::switch_cpus1.data   233.264748                       # Average occupied blocks per requestor
system.cpu1.dcache.occ_blocks::cpu1.data    22.735252                       # Average occupied blocks per requestor
system.cpu1.dcache.occ_percent::switch_cpus1.data     0.911190                       # Average percentage of cache occupancy
system.cpu1.dcache.occ_percent::cpu1.data     0.088810                       # Average percentage of cache occupancy
system.cpu1.dcache.occ_percent::total               1                       # Average percentage of cache occupancy
system.cpu1.dcache.ReadReq_hits::switch_cpus1.data      8115005                       # number of ReadReq hits
system.cpu1.dcache.ReadReq_hits::total        8115005                       # number of ReadReq hits
system.cpu1.dcache.WriteReq_hits::switch_cpus1.data      6800026                       # number of WriteReq hits
system.cpu1.dcache.WriteReq_hits::total       6800026                       # number of WriteReq hits
system.cpu1.dcache.LoadLockedReq_hits::switch_cpus1.data        16573                       # number of LoadLockedReq hits
system.cpu1.dcache.LoadLockedReq_hits::total        16573                       # number of LoadLockedReq hits
system.cpu1.dcache.StoreCondReq_hits::switch_cpus1.data        15776                       # number of StoreCondReq hits
system.cpu1.dcache.StoreCondReq_hits::total        15776                       # number of StoreCondReq hits
system.cpu1.dcache.demand_hits::switch_cpus1.data     14915031                       # number of demand (read+write) hits
system.cpu1.dcache.demand_hits::total        14915031                       # number of demand (read+write) hits
system.cpu1.dcache.overall_hits::switch_cpus1.data     14915031                       # number of overall hits
system.cpu1.dcache.overall_hits::total       14915031                       # number of overall hits
system.cpu1.dcache.ReadReq_misses::switch_cpus1.data       141194                       # number of ReadReq misses
system.cpu1.dcache.ReadReq_misses::total       141194                       # number of ReadReq misses
system.cpu1.dcache.WriteReq_misses::switch_cpus1.data         2678                       # number of WriteReq misses
system.cpu1.dcache.WriteReq_misses::total         2678                       # number of WriteReq misses
system.cpu1.dcache.demand_misses::switch_cpus1.data       143872                       # number of demand (read+write) misses
system.cpu1.dcache.demand_misses::total        143872                       # number of demand (read+write) misses
system.cpu1.dcache.overall_misses::switch_cpus1.data       143872                       # number of overall misses
system.cpu1.dcache.overall_misses::total       143872                       # number of overall misses
system.cpu1.dcache.ReadReq_miss_latency::switch_cpus1.data  14498954808                       # number of ReadReq miss cycles
system.cpu1.dcache.ReadReq_miss_latency::total  14498954808                       # number of ReadReq miss cycles
system.cpu1.dcache.WriteReq_miss_latency::switch_cpus1.data    383905464                       # number of WriteReq miss cycles
system.cpu1.dcache.WriteReq_miss_latency::total    383905464                       # number of WriteReq miss cycles
system.cpu1.dcache.demand_miss_latency::switch_cpus1.data  14882860272                       # number of demand (read+write) miss cycles
system.cpu1.dcache.demand_miss_latency::total  14882860272                       # number of demand (read+write) miss cycles
system.cpu1.dcache.overall_miss_latency::switch_cpus1.data  14882860272                       # number of overall miss cycles
system.cpu1.dcache.overall_miss_latency::total  14882860272                       # number of overall miss cycles
system.cpu1.dcache.ReadReq_accesses::switch_cpus1.data      8256199                       # number of ReadReq accesses(hits+misses)
system.cpu1.dcache.ReadReq_accesses::total      8256199                       # number of ReadReq accesses(hits+misses)
system.cpu1.dcache.WriteReq_accesses::switch_cpus1.data      6802704                       # number of WriteReq accesses(hits+misses)
system.cpu1.dcache.WriteReq_accesses::total      6802704                       # number of WriteReq accesses(hits+misses)
system.cpu1.dcache.LoadLockedReq_accesses::switch_cpus1.data        16573                       # number of LoadLockedReq accesses(hits+misses)
system.cpu1.dcache.LoadLockedReq_accesses::total        16573                       # number of LoadLockedReq accesses(hits+misses)
system.cpu1.dcache.StoreCondReq_accesses::switch_cpus1.data        15776                       # number of StoreCondReq accesses(hits+misses)
system.cpu1.dcache.StoreCondReq_accesses::total        15776                       # number of StoreCondReq accesses(hits+misses)
system.cpu1.dcache.demand_accesses::switch_cpus1.data     15058903                       # number of demand (read+write) accesses
system.cpu1.dcache.demand_accesses::total     15058903                       # number of demand (read+write) accesses
system.cpu1.dcache.overall_accesses::switch_cpus1.data     15058903                       # number of overall (read+write) accesses
system.cpu1.dcache.overall_accesses::total     15058903                       # number of overall (read+write) accesses
system.cpu1.dcache.ReadReq_miss_rate::switch_cpus1.data     0.017102                       # miss rate for ReadReq accesses
system.cpu1.dcache.ReadReq_miss_rate::total     0.017102                       # miss rate for ReadReq accesses
system.cpu1.dcache.WriteReq_miss_rate::switch_cpus1.data     0.000394                       # miss rate for WriteReq accesses
system.cpu1.dcache.WriteReq_miss_rate::total     0.000394                       # miss rate for WriteReq accesses
system.cpu1.dcache.demand_miss_rate::switch_cpus1.data     0.009554                       # miss rate for demand accesses
system.cpu1.dcache.demand_miss_rate::total     0.009554                       # miss rate for demand accesses
system.cpu1.dcache.overall_miss_rate::switch_cpus1.data     0.009554                       # miss rate for overall accesses
system.cpu1.dcache.overall_miss_rate::total     0.009554                       # miss rate for overall accesses
system.cpu1.dcache.ReadReq_avg_miss_latency::switch_cpus1.data 102688.179441                       # average ReadReq miss latency
system.cpu1.dcache.ReadReq_avg_miss_latency::total 102688.179441                       # average ReadReq miss latency
system.cpu1.dcache.WriteReq_avg_miss_latency::switch_cpus1.data 143355.289022                       # average WriteReq miss latency
system.cpu1.dcache.WriteReq_avg_miss_latency::total 143355.289022                       # average WriteReq miss latency
system.cpu1.dcache.demand_avg_miss_latency::switch_cpus1.data 103445.147576                       # average overall miss latency
system.cpu1.dcache.demand_avg_miss_latency::total 103445.147576                       # average overall miss latency
system.cpu1.dcache.overall_avg_miss_latency::switch_cpus1.data 103445.147576                       # average overall miss latency
system.cpu1.dcache.overall_avg_miss_latency::total 103445.147576                       # average overall miss latency
system.cpu1.dcache.blocked_cycles::no_mshrs            0                       # number of cycles access was blocked
system.cpu1.dcache.blocked_cycles::no_targets       623491                       # number of cycles access was blocked
system.cpu1.dcache.blocked::no_mshrs                0                       # number of cycles access was blocked
system.cpu1.dcache.blocked::no_targets              6                       # number of cycles access was blocked
system.cpu1.dcache.avg_blocked_cycles::no_mshrs          nan                       # average number of cycles each access was blocked
system.cpu1.dcache.avg_blocked_cycles::no_targets 103915.166667                       # average number of cycles each access was blocked
system.cpu1.dcache.fast_writes                      0                       # number of fast writes performed
system.cpu1.dcache.cache_copies                     0                       # number of cache copies performed
system.cpu1.dcache.writebacks::writebacks        22982                       # number of writebacks
system.cpu1.dcache.writebacks::total            22982                       # number of writebacks
system.cpu1.dcache.ReadReq_mshr_hits::switch_cpus1.data        91501                       # number of ReadReq MSHR hits
system.cpu1.dcache.ReadReq_mshr_hits::total        91501                       # number of ReadReq MSHR hits
system.cpu1.dcache.WriteReq_mshr_hits::switch_cpus1.data         2674                       # number of WriteReq MSHR hits
system.cpu1.dcache.WriteReq_mshr_hits::total         2674                       # number of WriteReq MSHR hits
system.cpu1.dcache.demand_mshr_hits::switch_cpus1.data        94175                       # number of demand (read+write) MSHR hits
system.cpu1.dcache.demand_mshr_hits::total        94175                       # number of demand (read+write) MSHR hits
system.cpu1.dcache.overall_mshr_hits::switch_cpus1.data        94175                       # number of overall MSHR hits
system.cpu1.dcache.overall_mshr_hits::total        94175                       # number of overall MSHR hits
system.cpu1.dcache.ReadReq_mshr_misses::switch_cpus1.data        49693                       # number of ReadReq MSHR misses
system.cpu1.dcache.ReadReq_mshr_misses::total        49693                       # number of ReadReq MSHR misses
system.cpu1.dcache.WriteReq_mshr_misses::switch_cpus1.data            4                       # number of WriteReq MSHR misses
system.cpu1.dcache.WriteReq_mshr_misses::total            4                       # number of WriteReq MSHR misses
system.cpu1.dcache.demand_mshr_misses::switch_cpus1.data        49697                       # number of demand (read+write) MSHR misses
system.cpu1.dcache.demand_mshr_misses::total        49697                       # number of demand (read+write) MSHR misses
system.cpu1.dcache.overall_mshr_misses::switch_cpus1.data        49697                       # number of overall MSHR misses
system.cpu1.dcache.overall_mshr_misses::total        49697                       # number of overall MSHR misses
system.cpu1.dcache.ReadReq_mshr_miss_latency::switch_cpus1.data   4198328100                       # number of ReadReq MSHR miss cycles
system.cpu1.dcache.ReadReq_mshr_miss_latency::total   4198328100                       # number of ReadReq MSHR miss cycles
system.cpu1.dcache.WriteReq_mshr_miss_latency::switch_cpus1.data       631976                       # number of WriteReq MSHR miss cycles
system.cpu1.dcache.WriteReq_mshr_miss_latency::total       631976                       # number of WriteReq MSHR miss cycles
system.cpu1.dcache.demand_mshr_miss_latency::switch_cpus1.data   4198960076                       # number of demand (read+write) MSHR miss cycles
system.cpu1.dcache.demand_mshr_miss_latency::total   4198960076                       # number of demand (read+write) MSHR miss cycles
system.cpu1.dcache.overall_mshr_miss_latency::switch_cpus1.data   4198960076                       # number of overall MSHR miss cycles
system.cpu1.dcache.overall_mshr_miss_latency::total   4198960076                       # number of overall MSHR miss cycles
system.cpu1.dcache.ReadReq_mshr_miss_rate::switch_cpus1.data     0.006019                       # mshr miss rate for ReadReq accesses
system.cpu1.dcache.ReadReq_mshr_miss_rate::total     0.006019                       # mshr miss rate for ReadReq accesses
system.cpu1.dcache.WriteReq_mshr_miss_rate::switch_cpus1.data     0.000001                       # mshr miss rate for WriteReq accesses
system.cpu1.dcache.WriteReq_mshr_miss_rate::total     0.000001                       # mshr miss rate for WriteReq accesses
system.cpu1.dcache.demand_mshr_miss_rate::switch_cpus1.data     0.003300                       # mshr miss rate for demand accesses
system.cpu1.dcache.demand_mshr_miss_rate::total     0.003300                       # mshr miss rate for demand accesses
system.cpu1.dcache.overall_mshr_miss_rate::switch_cpus1.data     0.003300                       # mshr miss rate for overall accesses
system.cpu1.dcache.overall_mshr_miss_rate::total     0.003300                       # mshr miss rate for overall accesses
system.cpu1.dcache.ReadReq_avg_mshr_miss_latency::switch_cpus1.data 84485.301753                       # average ReadReq mshr miss latency
system.cpu1.dcache.ReadReq_avg_mshr_miss_latency::total 84485.301753                       # average ReadReq mshr miss latency
system.cpu1.dcache.WriteReq_avg_mshr_miss_latency::switch_cpus1.data       157994                       # average WriteReq mshr miss latency
system.cpu1.dcache.WriteReq_avg_mshr_miss_latency::total       157994                       # average WriteReq mshr miss latency
system.cpu1.dcache.demand_avg_mshr_miss_latency::switch_cpus1.data 84491.218303                       # average overall mshr miss latency
system.cpu1.dcache.demand_avg_mshr_miss_latency::total 84491.218303                       # average overall mshr miss latency
system.cpu1.dcache.overall_avg_mshr_miss_latency::switch_cpus1.data 84491.218303                       # average overall mshr miss latency
system.cpu1.dcache.overall_avg_mshr_miss_latency::total 84491.218303                       # average overall mshr miss latency
system.cpu1.dcache.no_allocate_misses               0                       # Number of misses that were no-allocate

---------- End Simulation Statistics   ----------
