
---------- Begin Simulation Statistics ----------
sim_seconds                                  0.037500                       # Number of seconds simulated
sim_ticks                                 37499909697                       # Number of ticks simulated
final_tick                               567064289634                       # Number of ticks from beginning of simulation (restored from checkpoints and never reset)
sim_freq                                 1000000000000                       # Frequency of simulated ticks
host_inst_rate                                 249836                       # Simulator instruction rate (inst/s)
host_op_rate                                   315275                       # Simulator op (including micro ops) rate (op/s)
host_tick_rate                                2119437                       # Simulator tick rate (ticks/s)
host_mem_usage                               16925516                       # Number of bytes of host memory used
host_seconds                                 17693.34                       # Real time elapsed on the host
sim_insts                                  4420428111                       # Number of instructions simulated
sim_ops                                    5578267298                       # Number of ops (including micro ops) simulated
system.physmem.bytes_read::switch_cpus0.inst         1408                       # Number of bytes read from this memory
system.physmem.bytes_read::switch_cpus0.data      3030144                       # Number of bytes read from this memory
system.physmem.bytes_read::switch_cpus1.inst         1664                       # Number of bytes read from this memory
system.physmem.bytes_read::switch_cpus1.data      3200640                       # Number of bytes read from this memory
system.physmem.bytes_read::switch_cpus2.inst         2176                       # Number of bytes read from this memory
system.physmem.bytes_read::switch_cpus2.data       789248                       # Number of bytes read from this memory
system.physmem.bytes_read::switch_cpus3.inst         1664                       # Number of bytes read from this memory
system.physmem.bytes_read::switch_cpus3.data      1659904                       # Number of bytes read from this memory
system.physmem.bytes_read::total              8686848                       # Number of bytes read from this memory
system.physmem.bytes_inst_read::switch_cpus0.inst         1408                       # Number of instructions bytes read from this memory
system.physmem.bytes_inst_read::switch_cpus1.inst         1664                       # Number of instructions bytes read from this memory
system.physmem.bytes_inst_read::switch_cpus2.inst         2176                       # Number of instructions bytes read from this memory
system.physmem.bytes_inst_read::switch_cpus3.inst         1664                       # Number of instructions bytes read from this memory
system.physmem.bytes_inst_read::total            6912                       # Number of instructions bytes read from this memory
system.physmem.bytes_written::writebacks      2696576                       # Number of bytes written to this memory
system.physmem.bytes_written::total           2696576                       # Number of bytes written to this memory
system.physmem.num_reads::switch_cpus0.inst           11                       # Number of read requests responded to by this memory
system.physmem.num_reads::switch_cpus0.data        23673                       # Number of read requests responded to by this memory
system.physmem.num_reads::switch_cpus1.inst           13                       # Number of read requests responded to by this memory
system.physmem.num_reads::switch_cpus1.data        25005                       # Number of read requests responded to by this memory
system.physmem.num_reads::switch_cpus2.inst           17                       # Number of read requests responded to by this memory
system.physmem.num_reads::switch_cpus2.data         6166                       # Number of read requests responded to by this memory
system.physmem.num_reads::switch_cpus3.inst           13                       # Number of read requests responded to by this memory
system.physmem.num_reads::switch_cpus3.data        12968                       # Number of read requests responded to by this memory
system.physmem.num_reads::total                 67866                       # Number of read requests responded to by this memory
system.physmem.num_writes::writebacks           21067                       # Number of write requests responded to by this memory
system.physmem.num_writes::functional               0                       # Number of write requests responded to by this memory
system.physmem.num_writes::interrupt                0                       # Number of write requests responded to by this memory
system.physmem.num_writes::switch_cpus0.dtb.walker            0                       # Number of write requests responded to by this memory
system.physmem.num_writes::switch_cpus0.itb.walker            0                       # Number of write requests responded to by this memory
system.physmem.num_writes::switch_cpus0.inst            0                       # Number of write requests responded to by this memory
system.physmem.num_writes::switch_cpus0.data            0                       # Number of write requests responded to by this memory
system.physmem.num_writes::switch_cpus1.dtb.walker            0                       # Number of write requests responded to by this memory
system.physmem.num_writes::switch_cpus1.itb.walker            0                       # Number of write requests responded to by this memory
system.physmem.num_writes::switch_cpus1.inst            0                       # Number of write requests responded to by this memory
system.physmem.num_writes::switch_cpus1.data            0                       # Number of write requests responded to by this memory
system.physmem.num_writes::switch_cpus2.dtb.walker            0                       # Number of write requests responded to by this memory
system.physmem.num_writes::switch_cpus2.itb.walker            0                       # Number of write requests responded to by this memory
system.physmem.num_writes::switch_cpus2.inst            0                       # Number of write requests responded to by this memory
system.physmem.num_writes::switch_cpus2.data            0                       # Number of write requests responded to by this memory
system.physmem.num_writes::switch_cpus3.dtb.walker            0                       # Number of write requests responded to by this memory
system.physmem.num_writes::switch_cpus3.itb.walker            0                       # Number of write requests responded to by this memory
system.physmem.num_writes::switch_cpus3.inst            0                       # Number of write requests responded to by this memory
system.physmem.num_writes::switch_cpus3.data            0                       # Number of write requests responded to by this memory
system.physmem.num_writes::cpu0.dtb.walker            0                       # Number of write requests responded to by this memory
system.physmem.num_writes::cpu0.itb.walker            0                       # Number of write requests responded to by this memory
system.physmem.num_writes::cpu0.inst                0                       # Number of write requests responded to by this memory
system.physmem.num_writes::cpu0.data                0                       # Number of write requests responded to by this memory
system.physmem.num_writes::cpu1.dtb.walker            0                       # Number of write requests responded to by this memory
system.physmem.num_writes::cpu1.itb.walker            0                       # Number of write requests responded to by this memory
system.physmem.num_writes::cpu1.inst                0                       # Number of write requests responded to by this memory
system.physmem.num_writes::cpu1.data                0                       # Number of write requests responded to by this memory
system.physmem.num_writes::cpu2.dtb.walker            0                       # Number of write requests responded to by this memory
system.physmem.num_writes::cpu2.itb.walker            0                       # Number of write requests responded to by this memory
system.physmem.num_writes::cpu2.inst                0                       # Number of write requests responded to by this memory
system.physmem.num_writes::cpu2.data                0                       # Number of write requests responded to by this memory
system.physmem.num_writes::cpu3.dtb.walker            0                       # Number of write requests responded to by this memory
system.physmem.num_writes::cpu3.itb.walker            0                       # Number of write requests responded to by this memory
system.physmem.num_writes::cpu3.inst                0                       # Number of write requests responded to by this memory
system.physmem.num_writes::cpu3.data                0                       # Number of write requests responded to by this memory
system.physmem.num_writes::total                21067                       # Number of write requests responded to by this memory
system.physmem.bw_read::switch_cpus0.inst        37547                       # Total read bandwidth from this memory (bytes/s)
system.physmem.bw_read::switch_cpus0.data     80804035                       # Total read bandwidth from this memory (bytes/s)
system.physmem.bw_read::switch_cpus1.inst        44373                       # Total read bandwidth from this memory (bytes/s)
system.physmem.bw_read::switch_cpus1.data     85350606                       # Total read bandwidth from this memory (bytes/s)
system.physmem.bw_read::switch_cpus2.inst        58027                       # Total read bandwidth from this memory (bytes/s)
system.physmem.bw_read::switch_cpus2.data     21046664                       # Total read bandwidth from this memory (bytes/s)
system.physmem.bw_read::switch_cpus3.inst        44373                       # Total read bandwidth from this memory (bytes/s)
system.physmem.bw_read::switch_cpus3.data     44264213                       # Total read bandwidth from this memory (bytes/s)
system.physmem.bw_read::total               231649838                       # Total read bandwidth from this memory (bytes/s)
system.physmem.bw_inst_read::switch_cpus0.inst        37547                       # Instruction read bandwidth from this memory (bytes/s)
system.physmem.bw_inst_read::switch_cpus1.inst        44373                       # Instruction read bandwidth from this memory (bytes/s)
system.physmem.bw_inst_read::switch_cpus2.inst        58027                       # Instruction read bandwidth from this memory (bytes/s)
system.physmem.bw_inst_read::switch_cpus3.inst        44373                       # Instruction read bandwidth from this memory (bytes/s)
system.physmem.bw_inst_read::total             184320                       # Instruction read bandwidth from this memory (bytes/s)
system.physmem.bw_write::writebacks          71908866                       # Write bandwidth from this memory (bytes/s)
system.physmem.bw_write::total               71908866                       # Write bandwidth from this memory (bytes/s)
system.physmem.bw_total::writebacks          71908866                       # Total bandwidth to/from this memory (bytes/s)
system.physmem.bw_total::switch_cpus0.inst        37547                       # Total bandwidth to/from this memory (bytes/s)
system.physmem.bw_total::switch_cpus0.data     80804035                       # Total bandwidth to/from this memory (bytes/s)
system.physmem.bw_total::switch_cpus1.inst        44373                       # Total bandwidth to/from this memory (bytes/s)
system.physmem.bw_total::switch_cpus1.data     85350606                       # Total bandwidth to/from this memory (bytes/s)
system.physmem.bw_total::switch_cpus2.inst        58027                       # Total bandwidth to/from this memory (bytes/s)
system.physmem.bw_total::switch_cpus2.data     21046664                       # Total bandwidth to/from this memory (bytes/s)
system.physmem.bw_total::switch_cpus3.inst        44373                       # Total bandwidth to/from this memory (bytes/s)
system.physmem.bw_total::switch_cpus3.data     44264213                       # Total bandwidth to/from this memory (bytes/s)
system.physmem.bw_total::total              303558704                       # Total bandwidth to/from this memory (bytes/s)
system.switch_cpus0.dtb.inst_hits                   0                       # ITB inst hits
system.switch_cpus0.dtb.inst_misses                 0                       # ITB inst misses
system.switch_cpus0.dtb.read_hits                   0                       # DTB read hits
system.switch_cpus0.dtb.read_misses                 0                       # DTB read misses
system.switch_cpus0.dtb.write_hits                  0                       # DTB write hits
system.switch_cpus0.dtb.write_misses                0                       # DTB write misses
system.switch_cpus0.dtb.flush_tlb                   0                       # Number of times complete TLB was flushed
system.switch_cpus0.dtb.flush_tlb_mva               0                       # Number of times TLB was flushed by MVA
system.switch_cpus0.dtb.flush_tlb_mva_asid            0                       # Number of times TLB was flushed by MVA & ASID
system.switch_cpus0.dtb.flush_tlb_asid              0                       # Number of times TLB was flushed by ASID
system.switch_cpus0.dtb.flush_entries               0                       # Number of entries that have been flushed from TLB
system.switch_cpus0.dtb.align_faults                0                       # Number of TLB faults due to alignment restrictions
system.switch_cpus0.dtb.prefetch_faults             0                       # Number of TLB faults due to prefetch
system.switch_cpus0.dtb.domain_faults               0                       # Number of TLB faults due to domain restrictions
system.switch_cpus0.dtb.perms_faults                0                       # Number of TLB faults due to permissions restrictions
system.switch_cpus0.dtb.read_accesses               0                       # DTB read accesses
system.switch_cpus0.dtb.write_accesses              0                       # DTB write accesses
system.switch_cpus0.dtb.inst_accesses               0                       # ITB inst accesses
system.switch_cpus0.dtb.hits                        0                       # DTB hits
system.switch_cpus0.dtb.misses                      0                       # DTB misses
system.switch_cpus0.dtb.accesses                    0                       # DTB accesses
system.switch_cpus0.itb.inst_hits                   0                       # ITB inst hits
system.switch_cpus0.itb.inst_misses                 0                       # ITB inst misses
system.switch_cpus0.itb.read_hits                   0                       # DTB read hits
system.switch_cpus0.itb.read_misses                 0                       # DTB read misses
system.switch_cpus0.itb.write_hits                  0                       # DTB write hits
system.switch_cpus0.itb.write_misses                0                       # DTB write misses
system.switch_cpus0.itb.flush_tlb                   0                       # Number of times complete TLB was flushed
system.switch_cpus0.itb.flush_tlb_mva               0                       # Number of times TLB was flushed by MVA
system.switch_cpus0.itb.flush_tlb_mva_asid            0                       # Number of times TLB was flushed by MVA & ASID
system.switch_cpus0.itb.flush_tlb_asid              0                       # Number of times TLB was flushed by ASID
system.switch_cpus0.itb.flush_entries               0                       # Number of entries that have been flushed from TLB
system.switch_cpus0.itb.align_faults                0                       # Number of TLB faults due to alignment restrictions
system.switch_cpus0.itb.prefetch_faults             0                       # Number of TLB faults due to prefetch
system.switch_cpus0.itb.domain_faults               0                       # Number of TLB faults due to domain restrictions
system.switch_cpus0.itb.perms_faults                0                       # Number of TLB faults due to permissions restrictions
system.switch_cpus0.itb.read_accesses               0                       # DTB read accesses
system.switch_cpus0.itb.write_accesses              0                       # DTB write accesses
system.switch_cpus0.itb.inst_accesses               0                       # ITB inst accesses
system.switch_cpus0.itb.hits                        0                       # DTB hits
system.switch_cpus0.itb.misses                      0                       # DTB misses
system.switch_cpus0.itb.accesses                    0                       # DTB accesses
system.cpu0.workload.num_syscalls                   0                       # Number of system calls
system.switch_cpus0.numCycles                89927842                       # number of cpu cycles simulated
system.switch_cpus0.numWorkItemsStarted             0                       # number of work items this cpu started
system.switch_cpus0.numWorkItemsCompleted            0                       # number of work items this cpu completed
system.switch_cpus0.BPredUnit.lookups        31008830                       # Number of BP lookups
system.switch_cpus0.BPredUnit.condPredicted     25436178                       # Number of conditional branches predicted
system.switch_cpus0.BPredUnit.condIncorrect      2018467                       # Number of conditional branches incorrect
system.switch_cpus0.BPredUnit.BTBLookups     13048213                       # Number of BTB lookups
system.switch_cpus0.BPredUnit.BTBHits        12084412                       # Number of BTB hits
system.switch_cpus0.BPredUnit.BTBCorrect            0                       # Number of correct BTB predictions (this stat may not work properly.
system.switch_cpus0.BPredUnit.usedRAS         3158262                       # Number of times the RAS was used to get a target.
system.switch_cpus0.BPredUnit.RASInCorrect        87018                       # Number of incorrect RAS predictions.
system.switch_cpus0.fetch.icacheStallCycles     32041343                       # Number of cycles fetch is stalled on an Icache miss
system.switch_cpus0.fetch.Insts             170406818                       # Number of instructions fetch has processed
system.switch_cpus0.fetch.Branches           31008830                       # Number of branches that fetch encountered
system.switch_cpus0.fetch.predictedBranches     15242674                       # Number of branches that fetch has predicted taken
system.switch_cpus0.fetch.Cycles             36609082                       # Number of cycles fetch has run and was not squashing or blocked
system.switch_cpus0.fetch.SquashCycles       10825408                       # Number of cycles fetch has spent squashing
system.switch_cpus0.fetch.BlockedCycles       8622382                       # Number of cycles fetch has spent blocked
system.switch_cpus0.fetch.PendingTrapStallCycles            1                       # Number of stall cycles due to pending traps
system.switch_cpus0.fetch.CacheLines         15672147                       # Number of cache lines fetched
system.switch_cpus0.fetch.IcacheSquashes       804305                       # Number of outstanding Icache misses that were squashed
system.switch_cpus0.fetch.rateDist::samples     86047368                       # Number of instructions fetched each cycle (Total)
system.switch_cpus0.fetch.rateDist::mean     2.433492                       # Number of instructions fetched each cycle (Total)
system.switch_cpus0.fetch.rateDist::stdev     3.317674                       # Number of instructions fetched each cycle (Total)
system.switch_cpus0.fetch.rateDist::underflows            0      0.00%      0.00% # Number of instructions fetched each cycle (Total)
system.switch_cpus0.fetch.rateDist::0        49438286     57.45%     57.45% # Number of instructions fetched each cycle (Total)
system.switch_cpus0.fetch.rateDist::1         3658769      4.25%     61.71% # Number of instructions fetched each cycle (Total)
system.switch_cpus0.fetch.rateDist::2         3195824      3.71%     65.42% # Number of instructions fetched each cycle (Total)
system.switch_cpus0.fetch.rateDist::3         3442767      4.00%     69.42% # Number of instructions fetched each cycle (Total)
system.switch_cpus0.fetch.rateDist::4         2996931      3.48%     72.90% # Number of instructions fetched each cycle (Total)
system.switch_cpus0.fetch.rateDist::5         1573434      1.83%     74.73% # Number of instructions fetched each cycle (Total)
system.switch_cpus0.fetch.rateDist::6         1027616      1.19%     75.93% # Number of instructions fetched each cycle (Total)
system.switch_cpus0.fetch.rateDist::7         2713661      3.15%     79.08% # Number of instructions fetched each cycle (Total)
system.switch_cpus0.fetch.rateDist::8        18000080     20.92%    100.00% # Number of instructions fetched each cycle (Total)
system.switch_cpus0.fetch.rateDist::overflows            0      0.00%    100.00% # Number of instructions fetched each cycle (Total)
system.switch_cpus0.fetch.rateDist::min_value            0                       # Number of instructions fetched each cycle (Total)
system.switch_cpus0.fetch.rateDist::max_value            8                       # Number of instructions fetched each cycle (Total)
system.switch_cpus0.fetch.rateDist::total     86047368                       # Number of instructions fetched each cycle (Total)
system.switch_cpus0.fetch.branchRate         0.344819                       # Number of branch fetches per cycle
system.switch_cpus0.fetch.rate               1.894928                       # Number of inst fetches per cycle
system.switch_cpus0.decode.IdleCycles        33705643                       # Number of cycles decode is idle
system.switch_cpus0.decode.BlockedCycles      8203880                       # Number of cycles decode is blocked
system.switch_cpus0.decode.RunCycles         34822669                       # Number of cycles decode is running
system.switch_cpus0.decode.UnblockCycles       547062                       # Number of cycles decode is unblocking
system.switch_cpus0.decode.SquashCycles       8768105                       # Number of cycles decode is squashing
system.switch_cpus0.decode.BranchResolved      5078336                       # Number of times decode resolved a branch
system.switch_cpus0.decode.BranchMispred         6646                       # Number of times decode detected a branch misprediction
system.switch_cpus0.decode.DecodedInsts     202080109                       # Number of instructions handled by decode
system.switch_cpus0.decode.SquashedInsts        51075                       # Number of squashed instructions handled by decode
system.switch_cpus0.rename.SquashCycles       8768105                       # Number of cycles rename is squashing
system.switch_cpus0.rename.IdleCycles        35380396                       # Number of cycles rename is idle
system.switch_cpus0.rename.BlockCycles        4370140                       # Number of cycles rename is blocking
system.switch_cpus0.rename.serializeStallCycles      1116087                       # count of cycles rename stalled for serializing inst
system.switch_cpus0.rename.RunCycles         33660400                       # Number of cycles rename is running
system.switch_cpus0.rename.UnblockCycles      2752232                       # Number of cycles rename is unblocking
system.switch_cpus0.rename.RenamedInsts     195221282                       # Number of instructions processed by rename
system.switch_cpus0.rename.ROBFullEvents        12938                       # Number of times rename has blocked due to ROB full
system.switch_cpus0.rename.IQFullEvents       1722287                       # Number of times rename has blocked due to IQ full
system.switch_cpus0.rename.LSQFullEvents       751878                       # Number of times rename has blocked due to LSQ full
system.switch_cpus0.rename.FullRegisterEvents           14                       # Number of times there has been no free registers
system.switch_cpus0.rename.RenamedOperands    271208960                       # Number of destination operands rename has renamed
system.switch_cpus0.rename.RenameLookups    910329149                       # Number of register rename lookups that rename has made
system.switch_cpus0.rename.int_rename_lookups    910329149                       # Number of integer rename lookups
system.switch_cpus0.rename.CommittedMaps    168259218                       # Number of HB maps that are committed
system.switch_cpus0.rename.UndoneMaps       102949696                       # Number of HB maps that are undone due to squashing
system.switch_cpus0.rename.serializingInsts        33795                       # count of serializing insts renamed
system.switch_cpus0.rename.tempSerializingInsts        17752                       # count of temporary serializing insts renamed
system.switch_cpus0.rename.skidInsts          7298726                       # count of insts added to the skid buffer
system.switch_cpus0.memDep0.insertedLoads     19239551                       # Number of loads inserted to the mem dependence unit.
system.switch_cpus0.memDep0.insertedStores     10034542                       # Number of stores inserted to the mem dependence unit.
system.switch_cpus0.memDep0.conflictingLoads       242176                       # Number of conflicting loads.
system.switch_cpus0.memDep0.conflictingStores      3226138                       # Number of conflicting stores.
system.switch_cpus0.iq.iqInstsAdded         184039691                       # Number of instructions added to the IQ (excludes non-spec)
system.switch_cpus0.iq.iqNonSpecInstsAdded        33760                       # Number of non-speculative instructions added to the IQ
system.switch_cpus0.iq.iqInstsIssued        147834952                       # Number of instructions issued
system.switch_cpus0.iq.iqSquashedInstsIssued       287830                       # Number of squashed instructions issued
system.switch_cpus0.iq.iqSquashedInstsExamined     61103760                       # Number of squashed instructions iterated over during squash; mainly for profiling
system.switch_cpus0.iq.iqSquashedOperandsExamined    186782980                       # Number of squashed operands that are examined and possibly removed from graph
system.switch_cpus0.iq.iqSquashedNonSpecRemoved         1716                       # Number of squashed non-spec instructions that were removed
system.switch_cpus0.iq.issued_per_cycle::samples     86047368                       # Number of insts issued each cycle
system.switch_cpus0.iq.issued_per_cycle::mean     1.718065                       # Number of insts issued each cycle
system.switch_cpus0.iq.issued_per_cycle::stdev     1.904220                       # Number of insts issued each cycle
system.switch_cpus0.iq.issued_per_cycle::underflows            0      0.00%      0.00% # Number of insts issued each cycle
system.switch_cpus0.iq.issued_per_cycle::0     31773914     36.93%     36.93% # Number of insts issued each cycle
system.switch_cpus0.iq.issued_per_cycle::1     17882049     20.78%     57.71% # Number of insts issued each cycle
system.switch_cpus0.iq.issued_per_cycle::2     12007375     13.95%     71.66% # Number of insts issued each cycle
system.switch_cpus0.iq.issued_per_cycle::3      7638560      8.88%     80.54% # Number of insts issued each cycle
system.switch_cpus0.iq.issued_per_cycle::4      7531028      8.75%     89.29% # Number of insts issued each cycle
system.switch_cpus0.iq.issued_per_cycle::5      4435659      5.15%     94.45% # Number of insts issued each cycle
system.switch_cpus0.iq.issued_per_cycle::6      3383440      3.93%     98.38% # Number of insts issued each cycle
system.switch_cpus0.iq.issued_per_cycle::7       743318      0.86%     99.24% # Number of insts issued each cycle
system.switch_cpus0.iq.issued_per_cycle::8       652025      0.76%    100.00% # Number of insts issued each cycle
system.switch_cpus0.iq.issued_per_cycle::overflows            0      0.00%    100.00% # Number of insts issued each cycle
system.switch_cpus0.iq.issued_per_cycle::min_value            0                       # Number of insts issued each cycle
system.switch_cpus0.iq.issued_per_cycle::max_value            8                       # Number of insts issued each cycle
system.switch_cpus0.iq.issued_per_cycle::total     86047368                       # Number of insts issued each cycle
system.switch_cpus0.iq.fu_full::No_OpClass            0      0.00%      0.00% # attempts to use FU when none available
system.switch_cpus0.iq.fu_full::IntAlu        1082502     70.17%     70.17% # attempts to use FU when none available
system.switch_cpus0.iq.fu_full::IntMult            42      0.00%     70.17% # attempts to use FU when none available
system.switch_cpus0.iq.fu_full::IntDiv              0      0.00%     70.17% # attempts to use FU when none available
system.switch_cpus0.iq.fu_full::FloatAdd            0      0.00%     70.17% # attempts to use FU when none available
system.switch_cpus0.iq.fu_full::FloatCmp            0      0.00%     70.17% # attempts to use FU when none available
system.switch_cpus0.iq.fu_full::FloatCvt            0      0.00%     70.17% # attempts to use FU when none available
system.switch_cpus0.iq.fu_full::FloatMult            0      0.00%     70.17% # attempts to use FU when none available
system.switch_cpus0.iq.fu_full::FloatDiv            0      0.00%     70.17% # attempts to use FU when none available
system.switch_cpus0.iq.fu_full::FloatSqrt            0      0.00%     70.17% # attempts to use FU when none available
system.switch_cpus0.iq.fu_full::SimdAdd             0      0.00%     70.17% # attempts to use FU when none available
system.switch_cpus0.iq.fu_full::SimdAddAcc            0      0.00%     70.17% # attempts to use FU when none available
system.switch_cpus0.iq.fu_full::SimdAlu             0      0.00%     70.17% # attempts to use FU when none available
system.switch_cpus0.iq.fu_full::SimdCmp             0      0.00%     70.17% # attempts to use FU when none available
system.switch_cpus0.iq.fu_full::SimdCvt             0      0.00%     70.17% # attempts to use FU when none available
system.switch_cpus0.iq.fu_full::SimdMisc            0      0.00%     70.17% # attempts to use FU when none available
system.switch_cpus0.iq.fu_full::SimdMult            0      0.00%     70.17% # attempts to use FU when none available
system.switch_cpus0.iq.fu_full::SimdMultAcc            0      0.00%     70.17% # attempts to use FU when none available
system.switch_cpus0.iq.fu_full::SimdShift            0      0.00%     70.17% # attempts to use FU when none available
system.switch_cpus0.iq.fu_full::SimdShiftAcc            0      0.00%     70.17% # attempts to use FU when none available
system.switch_cpus0.iq.fu_full::SimdSqrt            0      0.00%     70.17% # attempts to use FU when none available
system.switch_cpus0.iq.fu_full::SimdFloatAdd            0      0.00%     70.17% # attempts to use FU when none available
system.switch_cpus0.iq.fu_full::SimdFloatAlu            0      0.00%     70.17% # attempts to use FU when none available
system.switch_cpus0.iq.fu_full::SimdFloatCmp            0      0.00%     70.17% # attempts to use FU when none available
system.switch_cpus0.iq.fu_full::SimdFloatCvt            0      0.00%     70.17% # attempts to use FU when none available
system.switch_cpus0.iq.fu_full::SimdFloatDiv            0      0.00%     70.17% # attempts to use FU when none available
system.switch_cpus0.iq.fu_full::SimdFloatMisc            0      0.00%     70.17% # attempts to use FU when none available
system.switch_cpus0.iq.fu_full::SimdFloatMult            0      0.00%     70.17% # attempts to use FU when none available
system.switch_cpus0.iq.fu_full::SimdFloatMultAcc            0      0.00%     70.17% # attempts to use FU when none available
system.switch_cpus0.iq.fu_full::SimdFloatSqrt            0      0.00%     70.17% # attempts to use FU when none available
system.switch_cpus0.iq.fu_full::MemRead        201937     13.09%     83.26% # attempts to use FU when none available
system.switch_cpus0.iq.fu_full::MemWrite       258234     16.74%    100.00% # attempts to use FU when none available
system.switch_cpus0.iq.fu_full::IprAccess            0      0.00%    100.00% # attempts to use FU when none available
system.switch_cpus0.iq.fu_full::InstPrefetch            0      0.00%    100.00% # attempts to use FU when none available
system.switch_cpus0.iq.FU_type_0::No_OpClass            0      0.00%      0.00% # Type of FU issued
system.switch_cpus0.iq.FU_type_0::IntAlu    121617774     82.27%     82.27% # Type of FU issued
system.switch_cpus0.iq.FU_type_0::IntMult      2018677      1.37%     83.63% # Type of FU issued
system.switch_cpus0.iq.FU_type_0::IntDiv            0      0.00%     83.63% # Type of FU issued
system.switch_cpus0.iq.FU_type_0::FloatAdd            0      0.00%     83.63% # Type of FU issued
system.switch_cpus0.iq.FU_type_0::FloatCmp            0      0.00%     83.63% # Type of FU issued
system.switch_cpus0.iq.FU_type_0::FloatCvt            0      0.00%     83.63% # Type of FU issued
system.switch_cpus0.iq.FU_type_0::FloatMult            0      0.00%     83.63% # Type of FU issued
system.switch_cpus0.iq.FU_type_0::FloatDiv            0      0.00%     83.63% # Type of FU issued
system.switch_cpus0.iq.FU_type_0::FloatSqrt            0      0.00%     83.63% # Type of FU issued
system.switch_cpus0.iq.FU_type_0::SimdAdd            0      0.00%     83.63% # Type of FU issued
system.switch_cpus0.iq.FU_type_0::SimdAddAcc            0      0.00%     83.63% # Type of FU issued
system.switch_cpus0.iq.FU_type_0::SimdAlu            0      0.00%     83.63% # Type of FU issued
system.switch_cpus0.iq.FU_type_0::SimdCmp            0      0.00%     83.63% # Type of FU issued
system.switch_cpus0.iq.FU_type_0::SimdCvt            0      0.00%     83.63% # Type of FU issued
system.switch_cpus0.iq.FU_type_0::SimdMisc            0      0.00%     83.63% # Type of FU issued
system.switch_cpus0.iq.FU_type_0::SimdMult            0      0.00%     83.63% # Type of FU issued
system.switch_cpus0.iq.FU_type_0::SimdMultAcc            0      0.00%     83.63% # Type of FU issued
system.switch_cpus0.iq.FU_type_0::SimdShift            0      0.00%     83.63% # Type of FU issued
system.switch_cpus0.iq.FU_type_0::SimdShiftAcc            0      0.00%     83.63% # Type of FU issued
system.switch_cpus0.iq.FU_type_0::SimdSqrt            0      0.00%     83.63% # Type of FU issued
system.switch_cpus0.iq.FU_type_0::SimdFloatAdd            0      0.00%     83.63% # Type of FU issued
system.switch_cpus0.iq.FU_type_0::SimdFloatAlu            0      0.00%     83.63% # Type of FU issued
system.switch_cpus0.iq.FU_type_0::SimdFloatCmp            0      0.00%     83.63% # Type of FU issued
system.switch_cpus0.iq.FU_type_0::SimdFloatCvt            0      0.00%     83.63% # Type of FU issued
system.switch_cpus0.iq.FU_type_0::SimdFloatDiv            0      0.00%     83.63% # Type of FU issued
system.switch_cpus0.iq.FU_type_0::SimdFloatMisc        16022      0.01%     83.64% # Type of FU issued
system.switch_cpus0.iq.FU_type_0::SimdFloatMult            0      0.00%     83.64% # Type of FU issued
system.switch_cpus0.iq.FU_type_0::SimdFloatMultAcc            0      0.00%     83.64% # Type of FU issued
system.switch_cpus0.iq.FU_type_0::SimdFloatSqrt            0      0.00%     83.64% # Type of FU issued
system.switch_cpus0.iq.FU_type_0::MemRead     15746956     10.65%     94.29% # Type of FU issued
system.switch_cpus0.iq.FU_type_0::MemWrite      8435523      5.71%    100.00% # Type of FU issued
system.switch_cpus0.iq.FU_type_0::IprAccess            0      0.00%    100.00% # Type of FU issued
system.switch_cpus0.iq.FU_type_0::InstPrefetch            0      0.00%    100.00% # Type of FU issued
system.switch_cpus0.iq.FU_type_0::total     147834952                       # Type of FU issued
system.switch_cpus0.iq.rate                  1.643929                       # Inst issue rate
system.switch_cpus0.iq.fu_busy_cnt            1542715                       # FU busy when requested
system.switch_cpus0.iq.fu_busy_rate          0.010435                       # FU busy rate (busy events/executed inst)
system.switch_cpus0.iq.int_inst_queue_reads    383547813                       # Number of integer instruction queue reads
system.switch_cpus0.iq.int_inst_queue_writes    245178254                       # Number of integer instruction queue writes
system.switch_cpus0.iq.int_inst_queue_wakeup_accesses    143692305                       # Number of integer instruction queue wakeup accesses
system.switch_cpus0.iq.fp_inst_queue_reads            0                       # Number of floating instruction queue reads
system.switch_cpus0.iq.fp_inst_queue_writes            0                       # Number of floating instruction queue writes
system.switch_cpus0.iq.fp_inst_queue_wakeup_accesses            0                       # Number of floating instruction queue wakeup accesses
system.switch_cpus0.iq.int_alu_accesses     149377667                       # Number of integer alu accesses
system.switch_cpus0.iq.fp_alu_accesses              0                       # Number of floating point alu accesses
system.switch_cpus0.iew.lsq.thread0.forwLoads       262088                       # Number of loads that had data forwarded from stores
system.switch_cpus0.iew.lsq.thread0.invAddrLoads            0                       # Number of loads ignored due to an invalid address
system.switch_cpus0.iew.lsq.thread0.squashedLoads      7027422                       # Number of loads squashed
system.switch_cpus0.iew.lsq.thread0.ignoredResponses          448                       # Number of memory responses ignored because the instruction is squashed
system.switch_cpus0.iew.lsq.thread0.memOrderViolation         1056                       # Number of memory ordering violations
system.switch_cpus0.iew.lsq.thread0.squashedStores      2292869                       # Number of stores squashed
system.switch_cpus0.iew.lsq.thread0.invAddrSwpfs            0                       # Number of software prefetches ignored due to an invalid address
system.switch_cpus0.iew.lsq.thread0.blockedLoads            0                       # Number of blocked loads due to partial load-store forwarding
system.switch_cpus0.iew.lsq.thread0.rescheduledLoads          578                       # Number of loads that were rescheduled
system.switch_cpus0.iew.lsq.thread0.cacheBlocked            0                       # Number of times an access to memory failed due to the cache being blocked
system.switch_cpus0.iew.iewIdleCycles               0                       # Number of cycles IEW is idle
system.switch_cpus0.iew.iewSquashCycles       8768105                       # Number of cycles IEW is squashing
system.switch_cpus0.iew.iewBlockCycles        3569345                       # Number of cycles IEW is blocking
system.switch_cpus0.iew.iewUnblockCycles       164308                       # Number of cycles IEW is unblocking
system.switch_cpus0.iew.iewDispatchedInsts    184073451                       # Number of instructions dispatched to IQ
system.switch_cpus0.iew.iewDispSquashedInsts       298333                       # Number of squashed instructions skipped by dispatch
system.switch_cpus0.iew.iewDispLoadInsts     19239551                       # Number of dispatched load instructions
system.switch_cpus0.iew.iewDispStoreInsts     10034542                       # Number of dispatched store instructions
system.switch_cpus0.iew.iewDispNonSpecInsts        17738                       # Number of dispatched non-speculative instructions
system.switch_cpus0.iew.iewIQFullEvents        117892                       # Number of times the IQ has become full, causing a stall
system.switch_cpus0.iew.iewLSQFullEvents         6720                       # Number of times the LSQ has become full, causing a stall
system.switch_cpus0.iew.memOrderViolationEvents         1056                       # Number of memory order violations
system.switch_cpus0.iew.predictedTakenIncorrect      1234626                       # Number of branches that were predicted taken incorrectly
system.switch_cpus0.iew.predictedNotTakenIncorrect      1130000                       # Number of branches that were predicted not taken incorrectly
system.switch_cpus0.iew.branchMispredicts      2364626                       # Number of branch mispredicts detected at execute
system.switch_cpus0.iew.iewExecutedInsts    145256357                       # Number of executed instructions
system.switch_cpus0.iew.iewExecLoadInsts     14797833                       # Number of load instructions executed
system.switch_cpus0.iew.iewExecSquashedInsts      2578591                       # Number of squashed instructions skipped in execute
system.switch_cpus0.iew.exec_swp                    0                       # number of swp insts executed
system.switch_cpus0.iew.exec_nop                    0                       # number of nop insts executed
system.switch_cpus0.iew.exec_refs            22992706                       # number of memory reference insts executed
system.switch_cpus0.iew.exec_branches        20588892                       # Number of branches executed
system.switch_cpus0.iew.exec_stores           8194873                       # Number of stores executed
system.switch_cpus0.iew.exec_rate            1.615255                       # Inst execution rate
system.switch_cpus0.iew.wb_sent             143836987                       # cumulative count of insts sent to commit
system.switch_cpus0.iew.wb_count            143692305                       # cumulative count of insts written-back
system.switch_cpus0.iew.wb_producers         93746222                       # num instructions producing a value
system.switch_cpus0.iew.wb_consumers        261848243                       # num instructions consuming a value
system.switch_cpus0.iew.wb_penalized                0                       # number of instrctions required to write to 'other' IQ
system.switch_cpus0.iew.wb_rate              1.597862                       # insts written-back per cycle
system.switch_cpus0.iew.wb_fanout            0.358017                       # average fanout of values written-back
system.switch_cpus0.iew.wb_penalized_rate            0                       # fraction of instructions written-back that wrote to 'other' IQ
system.switch_cpus0.commit.commitCommittedInsts    100000000                       # The number of committed instructions
system.switch_cpus0.commit.commitCommittedOps    122421920                       # The number of committed instructions
system.switch_cpus0.commit.commitSquashedInsts     61655669                       # The number of squashed insts skipped by commit
system.switch_cpus0.commit.commitNonSpecStalls        32044                       # The number of times commit has been forced to stall to communicate backwards
system.switch_cpus0.commit.branchMispredicts      2043654                       # The number of times a branch was mispredicted
system.switch_cpus0.commit.committed_per_cycle::samples     77279263                       # Number of insts commited each cycle
system.switch_cpus0.commit.committed_per_cycle::mean     1.584150                       # Number of insts commited each cycle
system.switch_cpus0.commit.committed_per_cycle::stdev     2.158544                       # Number of insts commited each cycle
system.switch_cpus0.commit.committed_per_cycle::underflows            0      0.00%      0.00% # Number of insts commited each cycle
system.switch_cpus0.commit.committed_per_cycle::0     31956304     41.35%     41.35% # Number of insts commited each cycle
system.switch_cpus0.commit.committed_per_cycle::1     20459057     26.47%     67.83% # Number of insts commited each cycle
system.switch_cpus0.commit.committed_per_cycle::2      8384582     10.85%     78.68% # Number of insts commited each cycle
system.switch_cpus0.commit.committed_per_cycle::3      4294499      5.56%     84.23% # Number of insts commited each cycle
system.switch_cpus0.commit.committed_per_cycle::4      3683212      4.77%     89.00% # Number of insts commited each cycle
system.switch_cpus0.commit.committed_per_cycle::5      1808933      2.34%     91.34% # Number of insts commited each cycle
system.switch_cpus0.commit.committed_per_cycle::6      1999956      2.59%     93.93% # Number of insts commited each cycle
system.switch_cpus0.commit.committed_per_cycle::7      1008807      1.31%     95.23% # Number of insts commited each cycle
system.switch_cpus0.commit.committed_per_cycle::8      3683913      4.77%    100.00% # Number of insts commited each cycle
system.switch_cpus0.commit.committed_per_cycle::overflows            0      0.00%    100.00% # Number of insts commited each cycle
system.switch_cpus0.commit.committed_per_cycle::min_value            0                       # Number of insts commited each cycle
system.switch_cpus0.commit.committed_per_cycle::max_value            8                       # Number of insts commited each cycle
system.switch_cpus0.commit.committed_per_cycle::total     77279263                       # Number of insts commited each cycle
system.switch_cpus0.commit.committedInsts    100000000                       # Number of instructions committed
system.switch_cpus0.commit.committedOps     122421920                       # Number of ops (including micro ops) committed
system.switch_cpus0.commit.swp_count                0                       # Number of s/w prefetches committed
system.switch_cpus0.commit.refs              19953799                       # Number of memory references committed
system.switch_cpus0.commit.loads             12212129                       # Number of loads committed
system.switch_cpus0.commit.membars              16022                       # Number of memory barriers committed
system.switch_cpus0.commit.branches          17573934                       # Number of branches committed
system.switch_cpus0.commit.fp_insts                 0                       # Number of committed floating point instructions.
system.switch_cpus0.commit.int_insts        110146126                       # Number of committed integer instructions.
system.switch_cpus0.commit.function_calls      2413416                       # Number of function calls committed.
system.switch_cpus0.commit.bw_lim_events      3683913                       # number cycles where commit BW limit reached
system.switch_cpus0.commit.bw_limited               0                       # number of insts not committed due to BW limits
system.switch_cpus0.rob.rob_reads           257672939                       # The number of ROB reads
system.switch_cpus0.rob.rob_writes          376931543                       # The number of ROB writes
system.switch_cpus0.timesIdled                  44596                       # Number of times that the entire CPU went into an idle state and unscheduled itself
system.switch_cpus0.idleCycles                3880474                       # Total number of cycles that the CPU has spent unscheduled due to idling
system.switch_cpus0.committedInsts          100000000                       # Number of Instructions Simulated
system.switch_cpus0.committedOps            122421920                       # Number of Ops (including micro ops) Simulated
system.switch_cpus0.committedInsts_total    100000000                       # Number of Instructions Simulated
system.switch_cpus0.cpi                      0.899278                       # CPI: Cycles Per Instruction
system.switch_cpus0.cpi_total                0.899278                       # CPI: Total CPI of All Threads
system.switch_cpus0.ipc                      1.112003                       # IPC: Instructions Per Cycle
system.switch_cpus0.ipc_total                1.112003                       # IPC: Total IPC of All Threads
system.switch_cpus0.int_regfile_reads       655846392                       # number of integer regfile reads
system.switch_cpus0.int_regfile_writes      197118917                       # number of integer regfile writes
system.switch_cpus0.misc_regfile_reads      189533055                       # number of misc regfile reads
system.switch_cpus0.misc_regfile_writes         32044                       # number of misc regfile writes
system.switch_cpus1.dtb.inst_hits                   0                       # ITB inst hits
system.switch_cpus1.dtb.inst_misses                 0                       # ITB inst misses
system.switch_cpus1.dtb.read_hits                   0                       # DTB read hits
system.switch_cpus1.dtb.read_misses                 0                       # DTB read misses
system.switch_cpus1.dtb.write_hits                  0                       # DTB write hits
system.switch_cpus1.dtb.write_misses                0                       # DTB write misses
system.switch_cpus1.dtb.flush_tlb                   0                       # Number of times complete TLB was flushed
system.switch_cpus1.dtb.flush_tlb_mva               0                       # Number of times TLB was flushed by MVA
system.switch_cpus1.dtb.flush_tlb_mva_asid            0                       # Number of times TLB was flushed by MVA & ASID
system.switch_cpus1.dtb.flush_tlb_asid              0                       # Number of times TLB was flushed by ASID
system.switch_cpus1.dtb.flush_entries               0                       # Number of entries that have been flushed from TLB
system.switch_cpus1.dtb.align_faults                0                       # Number of TLB faults due to alignment restrictions
system.switch_cpus1.dtb.prefetch_faults             0                       # Number of TLB faults due to prefetch
system.switch_cpus1.dtb.domain_faults               0                       # Number of TLB faults due to domain restrictions
system.switch_cpus1.dtb.perms_faults                0                       # Number of TLB faults due to permissions restrictions
system.switch_cpus1.dtb.read_accesses               0                       # DTB read accesses
system.switch_cpus1.dtb.write_accesses              0                       # DTB write accesses
system.switch_cpus1.dtb.inst_accesses               0                       # ITB inst accesses
system.switch_cpus1.dtb.hits                        0                       # DTB hits
system.switch_cpus1.dtb.misses                      0                       # DTB misses
system.switch_cpus1.dtb.accesses                    0                       # DTB accesses
system.switch_cpus1.itb.inst_hits                   0                       # ITB inst hits
system.switch_cpus1.itb.inst_misses                 0                       # ITB inst misses
system.switch_cpus1.itb.read_hits                   0                       # DTB read hits
system.switch_cpus1.itb.read_misses                 0                       # DTB read misses
system.switch_cpus1.itb.write_hits                  0                       # DTB write hits
system.switch_cpus1.itb.write_misses                0                       # DTB write misses
system.switch_cpus1.itb.flush_tlb                   0                       # Number of times complete TLB was flushed
system.switch_cpus1.itb.flush_tlb_mva               0                       # Number of times TLB was flushed by MVA
system.switch_cpus1.itb.flush_tlb_mva_asid            0                       # Number of times TLB was flushed by MVA & ASID
system.switch_cpus1.itb.flush_tlb_asid              0                       # Number of times TLB was flushed by ASID
system.switch_cpus1.itb.flush_entries               0                       # Number of entries that have been flushed from TLB
system.switch_cpus1.itb.align_faults                0                       # Number of TLB faults due to alignment restrictions
system.switch_cpus1.itb.prefetch_faults             0                       # Number of TLB faults due to prefetch
system.switch_cpus1.itb.domain_faults               0                       # Number of TLB faults due to domain restrictions
system.switch_cpus1.itb.perms_faults                0                       # Number of TLB faults due to permissions restrictions
system.switch_cpus1.itb.read_accesses               0                       # DTB read accesses
system.switch_cpus1.itb.write_accesses              0                       # DTB write accesses
system.switch_cpus1.itb.inst_accesses               0                       # ITB inst accesses
system.switch_cpus1.itb.hits                        0                       # DTB hits
system.switch_cpus1.itb.misses                      0                       # DTB misses
system.switch_cpus1.itb.accesses                    0                       # DTB accesses
system.cpu1.workload.num_syscalls                   0                       # Number of system calls
system.switch_cpus1.numCycles                89927842                       # number of cpu cycles simulated
system.switch_cpus1.numWorkItemsStarted             0                       # number of work items this cpu started
system.switch_cpus1.numWorkItemsCompleted            0                       # number of work items this cpu completed
system.switch_cpus1.BPredUnit.lookups        30459350                       # Number of BP lookups
system.switch_cpus1.BPredUnit.condPredicted     24751991                       # Number of conditional branches predicted
system.switch_cpus1.BPredUnit.condIncorrect      2075856                       # Number of conditional branches incorrect
system.switch_cpus1.BPredUnit.BTBLookups     12884590                       # Number of BTB lookups
system.switch_cpus1.BPredUnit.BTBHits        11901870                       # Number of BTB hits
system.switch_cpus1.BPredUnit.BTBCorrect            0                       # Number of correct BTB predictions (this stat may not work properly.
system.switch_cpus1.BPredUnit.usedRAS         3215306                       # Number of times the RAS was used to get a target.
system.switch_cpus1.BPredUnit.RASInCorrect        88334                       # Number of incorrect RAS predictions.
system.switch_cpus1.fetch.icacheStallCycles     30566040                       # Number of cycles fetch is stalled on an Icache miss
system.switch_cpus1.fetch.Insts             168886204                       # Number of instructions fetch has processed
system.switch_cpus1.fetch.Branches           30459350                       # Number of branches that fetch encountered
system.switch_cpus1.fetch.predictedBranches     15117176                       # Number of branches that fetch has predicted taken
system.switch_cpus1.fetch.Cycles             37150598                       # Number of cycles fetch has run and was not squashing or blocked
system.switch_cpus1.fetch.SquashCycles       11158760                       # Number of cycles fetch has spent squashing
system.switch_cpus1.fetch.BlockedCycles       7989822                       # Number of cycles fetch has spent blocked
system.switch_cpus1.fetch.PendingTrapStallCycles           22                       # Number of stall cycles due to pending traps
system.switch_cpus1.fetch.CacheLines         14969959                       # Number of cache lines fetched
system.switch_cpus1.fetch.IcacheSquashes       892332                       # Number of outstanding Icache misses that were squashed
system.switch_cpus1.fetch.rateDist::samples     84742798                       # Number of instructions fetched each cycle (Total)
system.switch_cpus1.fetch.rateDist::mean     2.462188                       # Number of instructions fetched each cycle (Total)
system.switch_cpus1.fetch.rateDist::stdev     3.290595                       # Number of instructions fetched each cycle (Total)
system.switch_cpus1.fetch.rateDist::underflows            0      0.00%      0.00% # Number of instructions fetched each cycle (Total)
system.switch_cpus1.fetch.rateDist::0        47592200     56.16%     56.16% # Number of instructions fetched each cycle (Total)
system.switch_cpus1.fetch.rateDist::1         3256513      3.84%     60.00% # Number of instructions fetched each cycle (Total)
system.switch_cpus1.fetch.rateDist::2         2644123      3.12%     63.12% # Number of instructions fetched each cycle (Total)
system.switch_cpus1.fetch.rateDist::3         6413340      7.57%     70.69% # Number of instructions fetched each cycle (Total)
system.switch_cpus1.fetch.rateDist::4         1749653      2.06%     72.76% # Number of instructions fetched each cycle (Total)
system.switch_cpus1.fetch.rateDist::5         2233971      2.64%     75.39% # Number of instructions fetched each cycle (Total)
system.switch_cpus1.fetch.rateDist::6         1609207      1.90%     77.29% # Number of instructions fetched each cycle (Total)
system.switch_cpus1.fetch.rateDist::7          906157      1.07%     78.36% # Number of instructions fetched each cycle (Total)
system.switch_cpus1.fetch.rateDist::8        18337634     21.64%    100.00% # Number of instructions fetched each cycle (Total)
system.switch_cpus1.fetch.rateDist::overflows            0      0.00%    100.00% # Number of instructions fetched each cycle (Total)
system.switch_cpus1.fetch.rateDist::min_value            0                       # Number of instructions fetched each cycle (Total)
system.switch_cpus1.fetch.rateDist::max_value            8                       # Number of instructions fetched each cycle (Total)
system.switch_cpus1.fetch.rateDist::total     84742798                       # Number of instructions fetched each cycle (Total)
system.switch_cpus1.fetch.branchRate         0.338709                       # Number of branch fetches per cycle
system.switch_cpus1.fetch.rate               1.878019                       # Number of inst fetches per cycle
system.switch_cpus1.decode.IdleCycles        31975900                       # Number of cycles decode is idle
system.switch_cpus1.decode.BlockedCycles      7802746                       # Number of cycles decode is blocked
system.switch_cpus1.decode.RunCycles         35725599                       # Number of cycles decode is running
system.switch_cpus1.decode.UnblockCycles       243903                       # Number of cycles decode is unblocking
system.switch_cpus1.decode.SquashCycles       8994641                       # Number of cycles decode is squashing
system.switch_cpus1.decode.BranchResolved      5205441                       # Number of times decode resolved a branch
system.switch_cpus1.decode.BranchMispred        42011                       # Number of times decode detected a branch misprediction
system.switch_cpus1.decode.DecodedInsts     201937124                       # Number of instructions handled by decode
system.switch_cpus1.decode.SquashedInsts        82913                       # Number of squashed instructions handled by decode
system.switch_cpus1.rename.SquashCycles       8994641                       # Number of cycles rename is squashing
system.switch_cpus1.rename.IdleCycles        34317574                       # Number of cycles rename is idle
system.switch_cpus1.rename.BlockCycles        1617596                       # Number of cycles rename is blocking
system.switch_cpus1.rename.serializeStallCycles      2717321                       # count of cycles rename stalled for serializing inst
system.switch_cpus1.rename.RunCycles         33571404                       # Number of cycles rename is running
system.switch_cpus1.rename.UnblockCycles      3524254                       # Number of cycles rename is unblocking
system.switch_cpus1.rename.RenamedInsts     194824901                       # Number of instructions processed by rename
system.switch_cpus1.rename.ROBFullEvents        35019                       # Number of times rename has blocked due to ROB full
system.switch_cpus1.rename.IQFullEvents       1460860                       # Number of times rename has blocked due to IQ full
system.switch_cpus1.rename.LSQFullEvents      1093309                       # Number of times rename has blocked due to LSQ full
system.switch_cpus1.rename.FullRegisterEvents         2789                       # Number of times there has been no free registers
system.switch_cpus1.rename.RenamedOperands    272686189                       # Number of destination operands rename has renamed
system.switch_cpus1.rename.RenameLookups    909566110                       # Number of register rename lookups that rename has made
system.switch_cpus1.rename.int_rename_lookups    909566110                       # Number of integer rename lookups
system.switch_cpus1.rename.CommittedMaps    167257624                       # Number of HB maps that are committed
system.switch_cpus1.rename.UndoneMaps       105428460                       # Number of HB maps that are undone due to squashing
system.switch_cpus1.rename.serializingInsts        40341                       # count of serializing insts renamed
system.switch_cpus1.rename.tempSerializingInsts        22870                       # count of temporary serializing insts renamed
system.switch_cpus1.rename.skidInsts          9654534                       # count of insts added to the skid buffer
system.switch_cpus1.memDep0.insertedLoads     18168177                       # Number of loads inserted to the mem dependence unit.
system.switch_cpus1.memDep0.insertedStores      9263272                       # Number of stores inserted to the mem dependence unit.
system.switch_cpus1.memDep0.conflictingLoads       144840                       # Number of conflicting loads.
system.switch_cpus1.memDep0.conflictingStores      3132036                       # Number of conflicting stores.
system.switch_cpus1.iq.iqInstsAdded         184247032                       # Number of instructions added to the IQ (excludes non-spec)
system.switch_cpus1.iq.iqNonSpecInstsAdded        38912                       # Number of non-speculative instructions added to the IQ
system.switch_cpus1.iq.iqInstsIssued        146374103                       # Number of instructions issued
system.switch_cpus1.iq.iqSquashedInstsIssued       289353                       # Number of squashed instructions issued
system.switch_cpus1.iq.iqSquashedInstsExamined     63607704                       # Number of squashed instructions iterated over during squash; mainly for profiling
system.switch_cpus1.iq.iqSquashedOperandsExamined    194354625                       # Number of squashed operands that are examined and possibly removed from graph
system.switch_cpus1.iq.iqSquashedNonSpecRemoved         6508                       # Number of squashed non-spec instructions that were removed
system.switch_cpus1.iq.issued_per_cycle::samples     84742798                       # Number of insts issued each cycle
system.switch_cpus1.iq.issued_per_cycle::mean     1.727275                       # Number of insts issued each cycle
system.switch_cpus1.iq.issued_per_cycle::stdev     1.882281                       # Number of insts issued each cycle
system.switch_cpus1.iq.issued_per_cycle::underflows            0      0.00%      0.00% # Number of insts issued each cycle
system.switch_cpus1.iq.issued_per_cycle::0     30442209     35.92%     35.92% # Number of insts issued each cycle
system.switch_cpus1.iq.issued_per_cycle::1     17901083     21.12%     57.05% # Number of insts issued each cycle
system.switch_cpus1.iq.issued_per_cycle::2     11797839     13.92%     70.97% # Number of insts issued each cycle
system.switch_cpus1.iq.issued_per_cycle::3      8669954     10.23%     81.20% # Number of insts issued each cycle
system.switch_cpus1.iq.issued_per_cycle::4      7440913      8.78%     89.98% # Number of insts issued each cycle
system.switch_cpus1.iq.issued_per_cycle::5      3873461      4.57%     94.55% # Number of insts issued each cycle
system.switch_cpus1.iq.issued_per_cycle::6      3290167      3.88%     98.43% # Number of insts issued each cycle
system.switch_cpus1.iq.issued_per_cycle::7       621855      0.73%     99.17% # Number of insts issued each cycle
system.switch_cpus1.iq.issued_per_cycle::8       705317      0.83%    100.00% # Number of insts issued each cycle
system.switch_cpus1.iq.issued_per_cycle::overflows            0      0.00%    100.00% # Number of insts issued each cycle
system.switch_cpus1.iq.issued_per_cycle::min_value            0                       # Number of insts issued each cycle
system.switch_cpus1.iq.issued_per_cycle::max_value            8                       # Number of insts issued each cycle
system.switch_cpus1.iq.issued_per_cycle::total     84742798                       # Number of insts issued each cycle
system.switch_cpus1.iq.fu_full::No_OpClass            0      0.00%      0.00% # attempts to use FU when none available
system.switch_cpus1.iq.fu_full::IntAlu         855772     71.22%     71.22% # attempts to use FU when none available
system.switch_cpus1.iq.fu_full::IntMult             9      0.00%     71.22% # attempts to use FU when none available
system.switch_cpus1.iq.fu_full::IntDiv              0      0.00%     71.22% # attempts to use FU when none available
system.switch_cpus1.iq.fu_full::FloatAdd            0      0.00%     71.22% # attempts to use FU when none available
system.switch_cpus1.iq.fu_full::FloatCmp            0      0.00%     71.22% # attempts to use FU when none available
system.switch_cpus1.iq.fu_full::FloatCvt            0      0.00%     71.22% # attempts to use FU when none available
system.switch_cpus1.iq.fu_full::FloatMult            0      0.00%     71.22% # attempts to use FU when none available
system.switch_cpus1.iq.fu_full::FloatDiv            0      0.00%     71.22% # attempts to use FU when none available
system.switch_cpus1.iq.fu_full::FloatSqrt            0      0.00%     71.22% # attempts to use FU when none available
system.switch_cpus1.iq.fu_full::SimdAdd             0      0.00%     71.22% # attempts to use FU when none available
system.switch_cpus1.iq.fu_full::SimdAddAcc            0      0.00%     71.22% # attempts to use FU when none available
system.switch_cpus1.iq.fu_full::SimdAlu             0      0.00%     71.22% # attempts to use FU when none available
system.switch_cpus1.iq.fu_full::SimdCmp             0      0.00%     71.22% # attempts to use FU when none available
system.switch_cpus1.iq.fu_full::SimdCvt             0      0.00%     71.22% # attempts to use FU when none available
system.switch_cpus1.iq.fu_full::SimdMisc            0      0.00%     71.22% # attempts to use FU when none available
system.switch_cpus1.iq.fu_full::SimdMult            0      0.00%     71.22% # attempts to use FU when none available
system.switch_cpus1.iq.fu_full::SimdMultAcc            0      0.00%     71.22% # attempts to use FU when none available
system.switch_cpus1.iq.fu_full::SimdShift            0      0.00%     71.22% # attempts to use FU when none available
system.switch_cpus1.iq.fu_full::SimdShiftAcc            0      0.00%     71.22% # attempts to use FU when none available
system.switch_cpus1.iq.fu_full::SimdSqrt            0      0.00%     71.22% # attempts to use FU when none available
system.switch_cpus1.iq.fu_full::SimdFloatAdd            0      0.00%     71.22% # attempts to use FU when none available
system.switch_cpus1.iq.fu_full::SimdFloatAlu            0      0.00%     71.22% # attempts to use FU when none available
system.switch_cpus1.iq.fu_full::SimdFloatCmp            0      0.00%     71.22% # attempts to use FU when none available
system.switch_cpus1.iq.fu_full::SimdFloatCvt            0      0.00%     71.22% # attempts to use FU when none available
system.switch_cpus1.iq.fu_full::SimdFloatDiv            0      0.00%     71.22% # attempts to use FU when none available
system.switch_cpus1.iq.fu_full::SimdFloatMisc            0      0.00%     71.22% # attempts to use FU when none available
system.switch_cpus1.iq.fu_full::SimdFloatMult            0      0.00%     71.22% # attempts to use FU when none available
system.switch_cpus1.iq.fu_full::SimdFloatMultAcc            0      0.00%     71.22% # attempts to use FU when none available
system.switch_cpus1.iq.fu_full::SimdFloatSqrt            0      0.00%     71.22% # attempts to use FU when none available
system.switch_cpus1.iq.fu_full::MemRead        173277     14.42%     85.64% # attempts to use FU when none available
system.switch_cpus1.iq.fu_full::MemWrite       172532     14.36%    100.00% # attempts to use FU when none available
system.switch_cpus1.iq.fu_full::IprAccess            0      0.00%    100.00% # attempts to use FU when none available
system.switch_cpus1.iq.fu_full::InstPrefetch            0      0.00%    100.00% # attempts to use FU when none available
system.switch_cpus1.iq.FU_type_0::No_OpClass            0      0.00%      0.00% # Type of FU issued
system.switch_cpus1.iq.FU_type_0::IntAlu    121961460     83.32%     83.32% # Type of FU issued
system.switch_cpus1.iq.FU_type_0::IntMult      2083665      1.42%     84.75% # Type of FU issued
system.switch_cpus1.iq.FU_type_0::IntDiv            0      0.00%     84.75% # Type of FU issued
system.switch_cpus1.iq.FU_type_0::FloatAdd            0      0.00%     84.75% # Type of FU issued
system.switch_cpus1.iq.FU_type_0::FloatCmp            0      0.00%     84.75% # Type of FU issued
system.switch_cpus1.iq.FU_type_0::FloatCvt            0      0.00%     84.75% # Type of FU issued
system.switch_cpus1.iq.FU_type_0::FloatMult            0      0.00%     84.75% # Type of FU issued
system.switch_cpus1.iq.FU_type_0::FloatDiv            0      0.00%     84.75% # Type of FU issued
system.switch_cpus1.iq.FU_type_0::FloatSqrt            0      0.00%     84.75% # Type of FU issued
system.switch_cpus1.iq.FU_type_0::SimdAdd            0      0.00%     84.75% # Type of FU issued
system.switch_cpus1.iq.FU_type_0::SimdAddAcc            0      0.00%     84.75% # Type of FU issued
system.switch_cpus1.iq.FU_type_0::SimdAlu            0      0.00%     84.75% # Type of FU issued
system.switch_cpus1.iq.FU_type_0::SimdCmp            0      0.00%     84.75% # Type of FU issued
system.switch_cpus1.iq.FU_type_0::SimdCvt            0      0.00%     84.75% # Type of FU issued
system.switch_cpus1.iq.FU_type_0::SimdMisc            0      0.00%     84.75% # Type of FU issued
system.switch_cpus1.iq.FU_type_0::SimdMult            0      0.00%     84.75% # Type of FU issued
system.switch_cpus1.iq.FU_type_0::SimdMultAcc            0      0.00%     84.75% # Type of FU issued
system.switch_cpus1.iq.FU_type_0::SimdShift            0      0.00%     84.75% # Type of FU issued
system.switch_cpus1.iq.FU_type_0::SimdShiftAcc            0      0.00%     84.75% # Type of FU issued
system.switch_cpus1.iq.FU_type_0::SimdSqrt            0      0.00%     84.75% # Type of FU issued
system.switch_cpus1.iq.FU_type_0::SimdFloatAdd            0      0.00%     84.75% # Type of FU issued
system.switch_cpus1.iq.FU_type_0::SimdFloatAlu            0      0.00%     84.75% # Type of FU issued
system.switch_cpus1.iq.FU_type_0::SimdFloatCmp            0      0.00%     84.75% # Type of FU issued
system.switch_cpus1.iq.FU_type_0::SimdFloatCvt            0      0.00%     84.75% # Type of FU issued
system.switch_cpus1.iq.FU_type_0::SimdFloatDiv            0      0.00%     84.75% # Type of FU issued
system.switch_cpus1.iq.FU_type_0::SimdFloatMisc        16201      0.01%     84.76% # Type of FU issued
system.switch_cpus1.iq.FU_type_0::SimdFloatMult            0      0.00%     84.76% # Type of FU issued
system.switch_cpus1.iq.FU_type_0::SimdFloatMultAcc            0      0.00%     84.76% # Type of FU issued
system.switch_cpus1.iq.FU_type_0::SimdFloatSqrt            0      0.00%     84.76% # Type of FU issued
system.switch_cpus1.iq.FU_type_0::MemRead     14534673      9.93%     94.69% # Type of FU issued
system.switch_cpus1.iq.FU_type_0::MemWrite      7778104      5.31%    100.00% # Type of FU issued
system.switch_cpus1.iq.FU_type_0::IprAccess            0      0.00%    100.00% # Type of FU issued
system.switch_cpus1.iq.FU_type_0::InstPrefetch            0      0.00%    100.00% # Type of FU issued
system.switch_cpus1.iq.FU_type_0::total     146374103                       # Type of FU issued
system.switch_cpus1.iq.rate                  1.627684                       # Inst issue rate
system.switch_cpus1.iq.fu_busy_cnt            1201590                       # FU busy when requested
system.switch_cpus1.iq.fu_busy_rate          0.008209                       # FU busy rate (busy events/executed inst)
system.switch_cpus1.iq.int_inst_queue_reads    378981942                       # Number of integer instruction queue reads
system.switch_cpus1.iq.int_inst_queue_writes    247894287                       # Number of integer instruction queue writes
system.switch_cpus1.iq.int_inst_queue_wakeup_accesses    142657554                       # Number of integer instruction queue wakeup accesses
system.switch_cpus1.iq.fp_inst_queue_reads            0                       # Number of floating instruction queue reads
system.switch_cpus1.iq.fp_inst_queue_writes            0                       # Number of floating instruction queue writes
system.switch_cpus1.iq.fp_inst_queue_wakeup_accesses            0                       # Number of floating instruction queue wakeup accesses
system.switch_cpus1.iq.int_alu_accesses     147575693                       # Number of integer alu accesses
system.switch_cpus1.iq.fp_alu_accesses              0                       # Number of floating point alu accesses
system.switch_cpus1.iew.lsq.thread0.forwLoads       550660                       # Number of loads that had data forwarded from stores
system.switch_cpus1.iew.lsq.thread0.invAddrLoads            0                       # Number of loads ignored due to an invalid address
system.switch_cpus1.iew.lsq.thread0.squashedLoads      7160478                       # Number of loads squashed
system.switch_cpus1.iew.lsq.thread0.ignoredResponses         2797                       # Number of memory responses ignored because the instruction is squashed
system.switch_cpus1.iew.lsq.thread0.memOrderViolation          639                       # Number of memory ordering violations
system.switch_cpus1.iew.lsq.thread0.squashedStores      2379053                       # Number of stores squashed
system.switch_cpus1.iew.lsq.thread0.invAddrSwpfs            0                       # Number of software prefetches ignored due to an invalid address
system.switch_cpus1.iew.lsq.thread0.blockedLoads            0                       # Number of blocked loads due to partial load-store forwarding
system.switch_cpus1.iew.lsq.thread0.rescheduledLoads            0                       # Number of loads that were rescheduled
system.switch_cpus1.iew.lsq.thread0.cacheBlocked            0                       # Number of times an access to memory failed due to the cache being blocked
system.switch_cpus1.iew.iewIdleCycles               0                       # Number of cycles IEW is idle
system.switch_cpus1.iew.iewSquashCycles       8994641                       # Number of cycles IEW is squashing
system.switch_cpus1.iew.iewBlockCycles         716412                       # Number of cycles IEW is blocking
system.switch_cpus1.iew.iewUnblockCycles        81848                       # Number of cycles IEW is unblocking
system.switch_cpus1.iew.iewDispatchedInsts    184285946                       # Number of instructions dispatched to IQ
system.switch_cpus1.iew.iewDispSquashedInsts       401398                       # Number of squashed instructions skipped by dispatch
system.switch_cpus1.iew.iewDispLoadInsts     18168177                       # Number of dispatched load instructions
system.switch_cpus1.iew.iewDispStoreInsts      9263272                       # Number of dispatched store instructions
system.switch_cpus1.iew.iewDispNonSpecInsts        22710                       # Number of dispatched non-speculative instructions
system.switch_cpus1.iew.iewIQFullEvents         73226                       # Number of times the IQ has become full, causing a stall
system.switch_cpus1.iew.iewLSQFullEvents            0                       # Number of times the LSQ has become full, causing a stall
system.switch_cpus1.iew.memOrderViolationEvents          639                       # Number of memory order violations
system.switch_cpus1.iew.predictedTakenIncorrect      1240359                       # Number of branches that were predicted taken incorrectly
system.switch_cpus1.iew.predictedNotTakenIncorrect      1167075                       # Number of branches that were predicted not taken incorrectly
system.switch_cpus1.iew.branchMispredicts      2407434                       # Number of branch mispredicts detected at execute
system.switch_cpus1.iew.iewExecutedInsts    144059536                       # Number of executed instructions
system.switch_cpus1.iew.iewExecLoadInsts     13641739                       # Number of load instructions executed
system.switch_cpus1.iew.iewExecSquashedInsts      2314562                       # Number of squashed instructions skipped in execute
system.switch_cpus1.iew.exec_swp                    0                       # number of swp insts executed
system.switch_cpus1.iew.exec_nop                    2                       # number of nop insts executed
system.switch_cpus1.iew.exec_refs            21218816                       # number of memory reference insts executed
system.switch_cpus1.iew.exec_branches        20326088                       # Number of branches executed
system.switch_cpus1.iew.exec_stores           7577077                       # Number of stores executed
system.switch_cpus1.iew.exec_rate            1.601946                       # Inst execution rate
system.switch_cpus1.iew.wb_sent             142752189                       # cumulative count of insts sent to commit
system.switch_cpus1.iew.wb_count            142657554                       # cumulative count of insts written-back
system.switch_cpus1.iew.wb_producers         92975189                       # num instructions producing a value
system.switch_cpus1.iew.wb_consumers        262466136                       # num instructions consuming a value
system.switch_cpus1.iew.wb_penalized                0                       # number of instrctions required to write to 'other' IQ
system.switch_cpus1.iew.wb_rate              1.586356                       # insts written-back per cycle
system.switch_cpus1.iew.wb_fanout            0.354237                       # average fanout of values written-back
system.switch_cpus1.iew.wb_penalized_rate            0                       # fraction of instructions written-back that wrote to 'other' IQ
system.switch_cpus1.commit.commitCommittedInsts     97985607                       # The number of committed instructions
system.switch_cpus1.commit.commitCommittedOps    120335704                       # The number of committed instructions
system.switch_cpus1.commit.commitSquashedInsts     63951347                       # The number of squashed insts skipped by commit
system.switch_cpus1.commit.commitNonSpecStalls        32404                       # The number of times commit has been forced to stall to communicate backwards
[...]
system.cpu3.icache.ReadReq_avg_miss_latency::total 269955.764706                       # average ReadReq miss latency
system.cpu3.icache.demand_avg_miss_latency::switch_cpus3.inst 269955.764706                       # average overall miss latency
system.cpu3.icache.demand_avg_miss_latency::total 269955.764706                       # average overall miss latency
system.cpu3.icache.overall_avg_miss_latency::switch_cpus3.inst 269955.764706                       # average overall miss latency
system.cpu3.icache.overall_avg_miss_latency::total 269955.764706                       # average overall miss latency
system.cpu3.icache.blocked_cycles::no_mshrs            0                       # number of cycles access was blocked
system.cpu3.icache.blocked_cycles::no_targets            0                       # number of cycles access was blocked
system.cpu3.icache.blocked::no_mshrs                0                       # number of cycles access was blocked
system.cpu3.icache.blocked::no_targets              0                       # number of cycles access was blocked
system.cpu3.icache.avg_blocked_cycles::no_mshrs          nan                       # average number of cycles each access was blocked
system.cpu3.icache.avg_blocked_cycles::no_targets          nan                       # average number of cycles each access was blocked
system.cpu3.icache.fast_writes                      0                       # number of fast writes performed
system.cpu3.icache.cache_copies                     0                       # number of cache copies performed
system.cpu3.icache.ReadReq_mshr_hits::switch_cpus3.inst            4                       # number of ReadReq MSHR hits
system.cpu3.icache.ReadReq_mshr_hits::total            4                       # number of ReadReq MSHR hits
system.cpu3.icache.demand_mshr_hits::switch_cpus3.inst            4                       # number of demand (read+write) MSHR hits
system.cpu3.icache.demand_mshr_hits::total            4                       # number of demand (read+write) MSHR hits
system.cpu3.icache.overall_mshr_hits::switch_cpus3.inst            4                       # number of overall MSHR hits
system.cpu3.icache.overall_mshr_hits::total            4                       # number of overall MSHR hits
system.cpu3.icache.ReadReq_mshr_misses::switch_cpus3.inst           13                       # number of ReadReq MSHR misses
system.cpu3.icache.ReadReq_mshr_misses::total           13                       # number of ReadReq MSHR misses
system.cpu3.icache.demand_mshr_misses::switch_cpus3.inst           13                       # number of demand (read+write) MSHR misses
system.cpu3.icache.demand_mshr_misses::total           13                       # number of demand (read+write) MSHR misses
system.cpu3.icache.overall_mshr_misses::switch_cpus3.inst           13                       # number of overall MSHR misses
system.cpu3.icache.overall_mshr_misses::total           13                       # number of overall MSHR misses
system.cpu3.icache.ReadReq_mshr_miss_latency::switch_cpus3.inst      3264395                       # number of ReadReq MSHR miss cycles
system.cpu3.icache.ReadReq_mshr_miss_latency::total      3264395                       # number of ReadReq MSHR miss cycles
system.cpu3.icache.demand_mshr_miss_latency::switch_cpus3.inst      3264395                       # number of demand (read+write) MSHR miss cycles
system.cpu3.icache.demand_mshr_miss_latency::total      3264395                       # number of demand (read+write) MSHR miss cycles
system.cpu3.icache.overall_mshr_miss_latency::switch_cpus3.inst      3264395                       # number of overall MSHR miss cycles
system.cpu3.icache.overall_mshr_miss_latency::total      3264395                       # number of overall MSHR miss cycles
system.cpu3.icache.ReadReq_mshr_miss_rate::switch_cpus3.inst     0.000001                       # mshr miss rate for ReadReq accesses
system.cpu3.icache.ReadReq_mshr_miss_rate::total     0.000001                       # mshr miss rate for ReadReq accesses
system.cpu3.icache.demand_mshr_miss_rate::switch_cpus3.inst     0.000001                       # mshr miss rate for demand accesses
system.cpu3.icache.demand_mshr_miss_rate::total     0.000001                       # mshr miss rate for demand accesses
system.cpu3.icache.overall_mshr_miss_rate::switch_cpus3.inst     0.000001                       # mshr miss rate for overall accesses
system.cpu3.icache.overall_mshr_miss_rate::total     0.000001                       # mshr miss rate for overall accesses
system.cpu3.icache.ReadReq_avg_mshr_miss_latency::switch_cpus3.inst 251107.307692                       # average ReadReq mshr miss latency
system.cpu3.icache.ReadReq_avg_mshr_miss_latency::total 251107.307692                       # average ReadReq mshr miss latency
system.cpu3.icache.demand_avg_mshr_miss_latency::switch_cpus3.inst 251107.307692                       # average overall mshr miss latency
system.cpu3.icache.demand_avg_mshr_miss_latency::total 251107.307692                       # average overall mshr miss latency
system.cpu3.icache.overall_avg_mshr_miss_latency::switch_cpus3.inst 251107.307692                       # average overall mshr miss latency
system.cpu3.icache.overall_avg_mshr_miss_latency::total 251107.307692                       # average overall mshr miss latency
system.cpu3.icache.no_allocate_misses               0                       # Number of misses that were no-allocate
system.cpu3.dcache.replacements                 53361                       # number of replacements
system.cpu3.dcache.tagsinuse                      256                       # Cycle average of tags in use
system.cpu3.dcache.total_refs               174503085                       # Total number of references to valid blocks.
system.cpu3.dcache.sampled_refs                 53617                       # Sample count of references to valid blocks.
system.cpu3.dcache.avg_refs               3254.622321                       # Average number of references to valid blocks.
system.cpu3.dcache.warmup_cycle                     0                       # Cycle when the warmup percentage was hit.
system.cpu3.dcache.occ_blocks::switch_cpus3.data   233.236837                       # Average occupied blocks per requestor
system.cpu3.dcache.occ_blocks::cpu3.data    22.763163                       # Average occupied blocks per requestor
system.cpu3.dcache.occ_percent::switch_cpus3.data     0.911081                       # Average percentage of cache occupancy
system.cpu3.dcache.occ_percent::cpu3.data     0.088919                       # Average percentage of cache occupancy
system.cpu3.dcache.occ_percent::total               1                       # Average percentage of cache occupancy
system.cpu3.dcache.ReadReq_hits::switch_cpus3.data     10659807                       # number of ReadReq hits
system.cpu3.dcache.ReadReq_hits::total       10659807                       # number of ReadReq hits
system.cpu3.dcache.WriteReq_hits::switch_cpus3.data      7339105                       # number of WriteReq hits
system.cpu3.dcache.WriteReq_hits::total       7339105                       # number of WriteReq hits
system.cpu3.dcache.LoadLockedReq_hits::switch_cpus3.data        17984                       # number of LoadLockedReq hits
system.cpu3.dcache.LoadLockedReq_hits::total        17984                       # number of LoadLockedReq hits
system.cpu3.dcache.StoreCondReq_hits::switch_cpus3.data        17028                       # number of StoreCondReq hits
system.cpu3.dcache.StoreCondReq_hits::total        17028                       # number of StoreCondReq hits
system.cpu3.dcache.demand_hits::switch_cpus3.data     17998912                       # number of demand (read+write) hits
system.cpu3.dcache.demand_hits::total        17998912                       # number of demand (read+write) hits
system.cpu3.dcache.overall_hits::switch_cpus3.data     17998912                       # number of overall hits
system.cpu3.dcache.overall_hits::total       17998912                       # number of overall hits
system.cpu3.dcache.ReadReq_misses::switch_cpus3.data       134498                       # number of ReadReq misses
system.cpu3.dcache.ReadReq_misses::total       134498                       # number of ReadReq misses
system.cpu3.dcache.WriteReq_misses::switch_cpus3.data         3869                       # number of WriteReq misses
system.cpu3.dcache.WriteReq_misses::total         3869                       # number of WriteReq misses
system.cpu3.dcache.demand_misses::switch_cpus3.data       138367                       # number of demand (read+write) misses
system.cpu3.dcache.demand_misses::total        138367                       # number of demand (read+write) misses
system.cpu3.dcache.overall_misses::switch_cpus3.data       138367                       # number of overall misses
system.cpu3.dcache.overall_misses::total       138367                       # number of overall misses
system.cpu3.dcache.ReadReq_miss_latency::switch_cpus3.data   8932113742                       # number of ReadReq miss cycles
system.cpu3.dcache.ReadReq_miss_latency::total   8932113742                       # number of ReadReq miss cycles
system.cpu3.dcache.WriteReq_miss_latency::switch_cpus3.data    501403418                       # number of WriteReq miss cycles
system.cpu3.dcache.WriteReq_miss_latency::total    501403418                       # number of WriteReq miss cycles
system.cpu3.dcache.demand_miss_latency::switch_cpus3.data   9433517160                       # number of demand (read+write) miss cycles
system.cpu3.dcache.demand_miss_latency::total   9433517160                       # number of demand (read+write) miss cycles
system.cpu3.dcache.overall_miss_latency::switch_cpus3.data   9433517160                       # number of overall miss cycles
system.cpu3.dcache.overall_miss_latency::total   9433517160                       # number of overall miss cycles
system.cpu3.dcache.ReadReq_accesses::switch_cpus3.data     10794305                       # number of ReadReq accesses(hits+misses)
system.cpu3.dcache.ReadReq_accesses::total     10794305                       # number of ReadReq accesses(hits+misses)
system.cpu3.dcache.WriteReq_accesses::switch_cpus3.data      7342974                       # number of WriteReq accesses(hits+misses)
system.cpu3.dcache.WriteReq_accesses::total      7342974                       # number of WriteReq accesses(hits+misses)
system.cpu3.dcache.LoadLockedReq_accesses::switch_cpus3.data        17984                       # number of LoadLockedReq accesses(hits+misses)
system.cpu3.dcache.LoadLockedReq_accesses::total        17984                       # number of LoadLockedReq accesses(hits+misses)
system.cpu3.dcache.StoreCondReq_accesses::switch_cpus3.data        17028                       # number of StoreCondReq accesses(hits+misses)
system.cpu3.dcache.StoreCondReq_accesses::total        17028                       # number of StoreCondReq accesses(hits+misses)
system.cpu3.dcache.demand_accesses::switch_cpus3.data     18137279                       # number of demand (read+write) accesses
system.cpu3.dcache.demand_accesses::total     18137279                       # number of demand (read+write) accesses
system.cpu3.dcache.overall_accesses::switch_cpus3.data     18137279                       # number of overall (read+write) accesses
system.cpu3.dcache.overall_accesses::total     18137279                       # number of overall (read+write) accesses
system.cpu3.dcache.ReadReq_miss_rate::switch_cpus3.data     0.012460                       # miss rate for ReadReq accesses
system.cpu3.dcache.ReadReq_miss_rate::total     0.012460                       # miss rate for ReadReq accesses
system.cpu3.dcache.WriteReq_miss_rate::switch_cpus3.data     0.000527                       # miss rate for WriteReq accesses
system.cpu3.dcache.WriteReq_miss_rate::total     0.000527                       # miss rate for WriteReq accesses
system.cpu3.dcache.demand_miss_rate::switch_cpus3.data     0.007629                       # miss rate for demand accesses
system.cpu3.dcache.demand_miss_rate::total     0.007629                       # miss rate for demand accesses
system.cpu3.dcache.overall_miss_rate::switch_cpus3.data     0.007629                       # miss rate for overall accesses
system.cpu3.dcache.overall_miss_rate::total     0.007629                       # miss rate for overall accesses
system.cpu3.dcache.ReadReq_avg_miss_latency::switch_cpus3.data 66410.755119                       # average ReadReq miss latency
system.cpu3.dcache.ReadReq_avg_miss_latency::total 66410.755119                       # average ReadReq miss latency
system.cpu3.dcache.WriteReq_avg_miss_latency::switch_cpus3.data 129595.093823                       # average WriteReq miss latency
system.cpu3.dcache.WriteReq_avg_miss_latency::total 129595.093823                       # average WriteReq miss latency
system.cpu3.dcache.demand_avg_miss_latency::switch_cpus3.data 68177.507354                       # average overall miss latency
system.cpu3.dcache.demand_avg_miss_latency::total 68177.507354                       # average overall miss latency
system.cpu3.dcache.overall_avg_miss_latency::switch_cpus3.data 68177.507354                       # average overall miss latency
system.cpu3.dcache.overall_avg_miss_latency::total 68177.507354                       # average overall miss latency
system.cpu3.dcache.blocked_cycles::no_mshrs            0                       # number of cycles access was blocked
system.cpu3.dcache.blocked_cycles::no_targets      2095703                       # number of cycles access was blocked
system.cpu3.dcache.blocked::no_mshrs                0                       # number of cycles access was blocked
system.cpu3.dcache.blocked::no_targets             20                       # number of cycles access was blocked
system.cpu3.dcache.avg_blocked_cycles::no_mshrs          nan                       # average number of cycles each access was blocked
system.cpu3.dcache.avg_blocked_cycles::no_targets 104785.150000                       # average number of cycles each access was blocked
system.cpu3.dcache.fast_writes                      0                       # number of fast writes performed
system.cpu3.dcache.cache_copies                     0                       # number of cache copies performed
system.cpu3.dcache.writebacks::writebacks        23904                       # number of writebacks
system.cpu3.dcache.writebacks::total            23904                       # number of writebacks
system.cpu3.dcache.ReadReq_mshr_hits::switch_cpus3.data        81141                       # number of ReadReq MSHR hits
system.cpu3.dcache.ReadReq_mshr_hits::total        81141                       # number of ReadReq MSHR hits
system.cpu3.dcache.WriteReq_mshr_hits::switch_cpus3.data         3865                       # number of WriteReq MSHR hits
system.cpu3.dcache.WriteReq_mshr_hits::total         3865                       # number of WriteReq MSHR hits
system.cpu3.dcache.demand_mshr_hits::switch_cpus3.data        85006                       # number of demand (read+write) MSHR hits
system.cpu3.dcache.demand_mshr_hits::total        85006                       # number of demand (read+write) MSHR hits
system.cpu3.dcache.overall_mshr_hits::switch_cpus3.data        85006                       # number of overall MSHR hits
system.cpu3.dcache.overall_mshr_hits::total        85006                       # number of overall MSHR hits
system.cpu3.dcache.ReadReq_mshr_misses::switch_cpus3.data        53357                       # number of ReadReq MSHR misses
system.cpu3.dcache.ReadReq_mshr_misses::total        53357                       # number of ReadReq MSHR misses
system.cpu3.dcache.WriteReq_mshr_misses::switch_cpus3.data            4                       # number of WriteReq MSHR misses
system.cpu3.dcache.WriteReq_mshr_misses::total            4                       # number of WriteReq MSHR misses
system.cpu3.dcache.demand_mshr_misses::switch_cpus3.data        53361                       # number of demand (read+write) MSHR misses
system.cpu3.dcache.demand_mshr_misses::total        53361                       # number of demand (read+write) MSHR misses
system.cpu3.dcache.overall_mshr_misses::switch_cpus3.data        53361                       # number of overall MSHR misses
system.cpu3.dcache.overall_mshr_misses::total        53361                       # number of overall MSHR misses
system.cpu3.dcache.ReadReq_mshr_miss_latency::switch_cpus3.data   2244477349                       # number of ReadReq MSHR miss cycles
system.cpu3.dcache.ReadReq_mshr_miss_latency::total   2244477349                       # number of ReadReq MSHR miss cycles
system.cpu3.dcache.WriteReq_mshr_miss_latency::switch_cpus3.data       341351                       # number of WriteReq MSHR miss cycles
system.cpu3.dcache.WriteReq_mshr_miss_latency::total       341351                       # number of WriteReq MSHR miss cycles
system.cpu3.dcache.demand_mshr_miss_latency::switch_cpus3.data   2244818700                       # number of demand (read+write) MSHR miss cycles
system.cpu3.dcache.demand_mshr_miss_latency::total   2244818700                       # number of demand (read+write) MSHR miss cycles
system.cpu3.dcache.overall_mshr_miss_latency::switch_cpus3.data   2244818700                       # number of overall MSHR miss cycles
system.cpu3.dcache.overall_mshr_miss_latency::total   2244818700                       # number of overall MSHR miss cycles
system.cpu3.dcache.ReadReq_mshr_miss_rate::switch_cpus3.data     0.004943                       # mshr miss rate for ReadReq accesses
system.cpu3.dcache.ReadReq_mshr_miss_rate::total     0.004943                       # mshr miss rate for ReadReq accesses
system.cpu3.dcache.WriteReq_mshr_miss_rate::switch_cpus3.data     0.000001                       # mshr miss rate for WriteReq accesses
system.cpu3.dcache.WriteReq_mshr_miss_rate::total     0.000001                       # mshr miss rate for WriteReq accesses
system.cpu3.dcache.demand_mshr_miss_rate::switch_cpus3.data     0.002942                       # mshr miss rate for demand accesses
system.cpu3.dcache.demand_mshr_miss_rate::total     0.002942                       # mshr miss rate for demand accesses
system.cpu3.dcache.overall_mshr_miss_rate::switch_cpus3.data     0.002942                       # mshr miss rate for overall accesses
system.cpu3.dcache.overall_mshr_miss_rate::total     0.002942                       # mshr miss rate for overall accesses
system.cpu3.dcache.ReadReq_avg_mshr_miss_latency::switch_cpus3.data 42065.283824                       # average ReadReq mshr miss latency
system.cpu3.dcache.ReadReq_avg_mshr_miss_latency::total 42065.283824                       # average ReadReq mshr miss latency
system.cpu3.dcache.WriteReq_avg_mshr_miss_latency::switch_cpus3.data 85337.750000                       # average WriteReq mshr miss latency
system.cpu3.dcache.WriteReq_avg_mshr_miss_latency::total 85337.750000                       # average WriteReq mshr miss latency
system.cpu3.dcache.demand_avg_mshr_miss_latency::switch_cpus3.data 42068.527576                       # average overall mshr miss latency
system.cpu3.dcache.demand_avg_mshr_miss_latency::total 42068.527576                       # average overall mshr miss latency
system.cpu3.dcache.overall_avg_mshr_miss_latency::switch_cpus3.data 42068.527576                       # average overall mshr miss latency
system.cpu3.dcache.overall_avg_mshr_miss_latency::total 42068.527576                       # average overall mshr miss latency
system.cpu3.dcache.no_allocate_misses               0                       # Number of misses that were no-allocate

---------- End Simulation Statistics   ----------
