
---------- Begin Simulation Statistics ----------
sim_seconds                                  0.035071                       # Number of seconds simulated
sim_ticks                                 35070584874                       # Number of ticks simulated
final_tick                               563119045545                       # Number of ticks from beginning of simulation (restored from checkpoints and never reset)
sim_freq                                 1000000000000                       # Frequency of simulated ticks
host_inst_rate                                 267548                       # Simulator instruction rate (inst/s)
host_op_rate                                   337664                       # Simulator op (including micro ops) rate (op/s)
host_tick_rate                                2843827                       # Simulator tick rate (ticks/s)
host_mem_usage                               16902148                       # Number of bytes of host memory used
host_seconds                                 12332.18                       # Real time elapsed on the host
sim_insts                                  3299445798                       # Number of instructions simulated
sim_ops                                    4164135551                       # Number of ops (including micro ops) simulated
system.physmem.bytes_read::switch_cpus0.inst         1792                       # Number of bytes read from this memory
system.physmem.bytes_read::switch_cpus0.data       691200                       # Number of bytes read from this memory
system.physmem.bytes_read::switch_cpus1.inst         1664                       # Number of bytes read from this memory
system.physmem.bytes_read::switch_cpus1.data      1041664                       # Number of bytes read from this memory
system.physmem.bytes_read::switch_cpus2.inst         1664                       # Number of bytes read from this memory
system.physmem.bytes_read::switch_cpus2.data      1921792                       # Number of bytes read from this memory
system.physmem.bytes_read::total              3659776                       # Number of bytes read from this memory
system.physmem.bytes_inst_read::switch_cpus0.inst         1792                       # Number of instructions bytes read from this memory
system.physmem.bytes_inst_read::switch_cpus1.inst         1664                       # Number of instructions bytes read from this memory
system.physmem.bytes_inst_read::switch_cpus2.inst         1664                       # Number of instructions bytes read from this memory
system.physmem.bytes_inst_read::total            5120                       # Number of instructions bytes read from this memory
system.physmem.bytes_written::writebacks      1658368                       # Number of bytes written to this memory
system.physmem.bytes_written::total           1658368                       # Number of bytes written to this memory
system.physmem.num_reads::switch_cpus0.inst           14                       # Number of read requests responded to by this memory
system.physmem.num_reads::switch_cpus0.data         5400                       # Number of read requests responded to by this memory
system.physmem.num_reads::switch_cpus1.inst           13                       # Number of read requests responded to by this memory
system.physmem.num_reads::switch_cpus1.data         8138                       # Number of read requests responded to by this memory
system.physmem.num_reads::switch_cpus2.inst           13                       # Number of read requests responded to by this memory
system.physmem.num_reads::switch_cpus2.data        15014                       # Number of read requests responded to by this memory
system.physmem.num_reads::total                 28592                       # Number of read requests responded to by this memory
system.physmem.num_writes::writebacks           12956                       # Number of write requests responded to by this memory
system.physmem.num_writes::functional               0                       # Number of write requests responded to by this memory
system.physmem.num_writes::interrupt                0                       # Number of write requests responded to by this memory
system.physmem.num_writes::switch_cpus0.dtb.walker            0                       # Number of write requests responded to by this memory
system.physmem.num_writes::switch_cpus0.itb.walker            0                       # Number of write requests responded to by this memory
system.physmem.num_writes::switch_cpus0.inst            0                       # Number of write requests responded to by this memory
system.physmem.num_writes::switch_cpus0.data            0                       # Number of write requests responded to by this memory
system.physmem.num_writes::switch_cpus1.dtb.walker            0                       # Number of write requests responded to by this memory
system.physmem.num_writes::switch_cpus1.itb.walker            0                       # Number of write requests responded to by this memory
system.physmem.num_writes::switch_cpus1.inst            0                       # Number of write requests responded to by this memory
system.physmem.num_writes::switch_cpus1.data            0                       # Number of write requests responded to by this memory
system.physmem.num_writes::switch_cpus2.dtb.walker            0                       # Number of write requests responded to by this memory
system.physmem.num_writes::switch_cpus2.itb.walker            0                       # Number of write requests responded to by this memory
system.physmem.num_writes::switch_cpus2.inst            0                       # Number of write requests responded to by this memory
system.physmem.num_writes::switch_cpus2.data            0                       # Number of write requests responded to by this memory
system.physmem.num_writes::cpu0.dtb.walker            0                       # Number of write requests responded to by this memory
system.physmem.num_writes::cpu0.itb.walker            0                       # Number of write requests responded to by this memory
system.physmem.num_writes::cpu0.inst                0                       # Number of write requests responded to by this memory
system.physmem.num_writes::cpu0.data                0                       # Number of write requests responded to by this memory
system.physmem.num_writes::cpu1.dtb.walker            0                       # Number of write requests responded to by this memory
system.physmem.num_writes::cpu1.itb.walker            0                       # Number of write requests responded to by this memory
system.physmem.num_writes::cpu1.inst                0                       # Number of write requests responded to by this memory
system.physmem.num_writes::cpu1.data                0                       # Number of write requests responded to by this memory
system.physmem.num_writes::cpu2.dtb.walker            0                       # Number of write requests responded to by this memory
system.physmem.num_writes::cpu2.itb.walker            0                       # Number of write requests responded to by this memory
system.physmem.num_writes::cpu2.inst                0                       # Number of write requests responded to by this memory
system.physmem.num_writes::cpu2.data                0                       # Number of write requests responded to by this memory
system.physmem.num_writes::total                12956                       # Number of write requests responded to by this memory
system.physmem.bw_read::switch_cpus0.inst        51097                       # Total read bandwidth from this memory (bytes/s)
system.physmem.bw_read::switch_cpus0.data     19708824                       # Total read bandwidth from this memory (bytes/s)
system.physmem.bw_read::switch_cpus1.inst        47447                       # Total read bandwidth from this memory (bytes/s)
system.physmem.bw_read::switch_cpus1.data     29701928                       # Total read bandwidth from this memory (bytes/s)
system.physmem.bw_read::switch_cpus2.inst        47447                       # Total read bandwidth from this memory (bytes/s)
system.physmem.bw_read::switch_cpus2.data     54797831                       # Total read bandwidth from this memory (bytes/s)
system.physmem.bw_read::total               104354576                       # Total read bandwidth from this memory (bytes/s)
system.physmem.bw_inst_read::switch_cpus0.inst        51097                       # Instruction read bandwidth from this memory (bytes/s)
system.physmem.bw_inst_read::switch_cpus1.inst        47447                       # Instruction read bandwidth from this memory (bytes/s)
system.physmem.bw_inst_read::switch_cpus2.inst        47447                       # Instruction read bandwidth from this memory (bytes/s)
system.physmem.bw_inst_read::total             145991                       # Instruction read bandwidth from this memory (bytes/s)
system.physmem.bw_write::writebacks          47286580                       # Write bandwidth from this memory (bytes/s)
system.physmem.bw_write::total               47286580                       # Write bandwidth from this memory (bytes/s)
system.physmem.bw_total::writebacks          47286580                       # Total bandwidth to/from this memory (bytes/s)
system.physmem.bw_total::switch_cpus0.inst        51097                       # Total bandwidth to/from this memory (bytes/s)
system.physmem.bw_total::switch_cpus0.data     19708824                       # Total bandwidth to/from this memory (bytes/s)
system.physmem.bw_total::switch_cpus1.inst        47447                       # Total bandwidth to/from this memory (bytes/s)
system.physmem.bw_total::switch_cpus1.data     29701928                       # Total bandwidth to/from this memory (bytes/s)
system.physmem.bw_total::switch_cpus2.inst        47447                       # Total bandwidth to/from this memory (bytes/s)
system.physmem.bw_total::switch_cpus2.data     54797831                       # Total bandwidth to/from this memory (bytes/s)
system.physmem.bw_total::total              151641155                       # Total bandwidth to/from this memory (bytes/s)
system.switch_cpus0.dtb.inst_hits                   0                       # ITB inst hits
system.switch_cpus0.dtb.inst_misses                 0                       # ITB inst misses
system.switch_cpus0.dtb.read_hits                   0                       # DTB read hits
system.switch_cpus0.dtb.read_misses                 0                       # DTB read misses
system.switch_cpus0.dtb.write_hits                  0                       # DTB write hits
system.switch_cpus0.dtb.write_misses                0                       # DTB write misses
system.switch_cpus0.dtb.flush_tlb                   0                       # Number of times complete TLB was flushed
system.switch_cpus0.dtb.flush_tlb_mva               0                       # Number of times TLB was flushed by MVA
system.switch_cpus0.dtb.flush_tlb_mva_asid            0                       # Number of times TLB was flushed by MVA & ASID
system.switch_cpus0.dtb.flush_tlb_asid              0                       # Number of times TLB was flushed by ASID
system.switch_cpus0.dtb.flush_entries               0                       # Number of entries that have been flushed from TLB
system.switch_cpus0.dtb.align_faults                0                       # Number of TLB faults due to alignment restrictions
system.switch_cpus0.dtb.prefetch_faults             0                       # Number of TLB faults due to prefetch
system.switch_cpus0.dtb.domain_faults               0                       # Number of TLB faults due to domain restrictions
system.switch_cpus0.dtb.perms_faults                0                       # Number of TLB faults due to permissions restrictions
system.switch_cpus0.dtb.read_accesses               0                       # DTB read accesses
system.switch_cpus0.dtb.write_accesses              0                       # DTB write accesses
system.switch_cpus0.dtb.inst_accesses               0                       # ITB inst accesses
system.switch_cpus0.dtb.hits                        0                       # DTB hits
system.switch_cpus0.dtb.misses                      0                       # DTB misses
system.switch_cpus0.dtb.accesses                    0                       # DTB accesses
system.switch_cpus0.itb.inst_hits                   0                       # ITB inst hits
system.switch_cpus0.itb.inst_misses                 0                       # ITB inst misses
system.switch_cpus0.itb.read_hits                   0                       # DTB read hits
system.switch_cpus0.itb.read_misses                 0                       # DTB read misses
system.switch_cpus0.itb.write_hits                  0                       # DTB write hits
system.switch_cpus0.itb.write_misses                0                       # DTB write misses
system.switch_cpus0.itb.flush_tlb                   0                       # Number of times complete TLB was flushed
system.switch_cpus0.itb.flush_tlb_mva               0                       # Number of times TLB was flushed by MVA
system.switch_cpus0.itb.flush_tlb_mva_asid            0                       # Number of times TLB was flushed by MVA & ASID
system.switch_cpus0.itb.flush_tlb_asid              0                       # Number of times TLB was flushed by ASID
system.switch_cpus0.itb.flush_entries               0                       # Number of entries that have been flushed from TLB
system.switch_cpus0.itb.align_faults                0                       # Number of TLB faults due to alignment restrictions
system.switch_cpus0.itb.prefetch_faults             0                       # Number of TLB faults due to prefetch
system.switch_cpus0.itb.domain_faults               0                       # Number of TLB faults due to domain restrictions
system.switch_cpus0.itb.perms_faults                0                       # Number of TLB faults due to permissions restrictions
system.switch_cpus0.itb.read_accesses               0                       # DTB read accesses
system.switch_cpus0.itb.write_accesses              0                       # DTB write accesses
system.switch_cpus0.itb.inst_accesses               0                       # ITB inst accesses
system.switch_cpus0.itb.hits                        0                       # DTB hits
system.switch_cpus0.itb.misses                      0                       # DTB misses
system.switch_cpus0.itb.accesses                    0                       # DTB accesses
system.cpu0.workload.num_syscalls                   0                       # Number of system calls
system.switch_cpus0.numCycles                84102123                       # number of cpu cycles simulated
system.switch_cpus0.numWorkItemsStarted             0                       # number of work items this cpu started
system.switch_cpus0.numWorkItemsCompleted            0                       # number of work items this cpu completed
system.switch_cpus0.BPredUnit.lookups        31108147                       # Number of BP lookups
system.switch_cpus0.BPredUnit.condPredicted     25360805                       # Number of conditional branches predicted
system.switch_cpus0.BPredUnit.condIncorrect      2077810                       # Number of conditional branches incorrect
system.switch_cpus0.BPredUnit.BTBLookups     13073845                       # Number of BTB lookups
system.switch_cpus0.BPredUnit.BTBHits        12153095                       # Number of BTB hits
system.switch_cpus0.BPredUnit.BTBCorrect            0                       # Number of correct BTB predictions (this stat may not work properly.
system.switch_cpus0.BPredUnit.usedRAS         3351603                       # Number of times the RAS was used to get a target.
system.switch_cpus0.BPredUnit.RASInCorrect        92012                       # Number of incorrect RAS predictions.
system.switch_cpus0.fetch.icacheStallCycles     31120908                       # Number of cycles fetch is stalled on an Icache miss
system.switch_cpus0.fetch.Insts             170928260                       # Number of instructions fetch has processed
system.switch_cpus0.fetch.Branches           31108147                       # Number of branches that fetch encountered
system.switch_cpus0.fetch.predictedBranches     15504698                       # Number of branches that fetch has predicted taken
system.switch_cpus0.fetch.Cycles             37966147                       # Number of cycles fetch has run and was not squashing or blocked
system.switch_cpus0.fetch.SquashCycles       11048415                       # Number of cycles fetch has spent squashing
system.switch_cpus0.fetch.BlockedCycles       5158558                       # Number of cycles fetch has spent blocked
system.switch_cpus0.fetch.PendingTrapStallCycles           49                       # Number of stall cycles due to pending traps
system.switch_cpus0.fetch.CacheLines         15360340                       # Number of cache lines fetched
system.switch_cpus0.fetch.IcacheSquashes      1005278                       # Number of outstanding Icache misses that were squashed
system.switch_cpus0.fetch.rateDist::samples     83190661                       # Number of instructions fetched each cycle (Total)
system.switch_cpus0.fetch.rateDist::mean     2.546441                       # Number of instructions fetched each cycle (Total)
system.switch_cpus0.fetch.rateDist::stdev     3.295384                       # Number of instructions fetched each cycle (Total)
system.switch_cpus0.fetch.rateDist::underflows            0      0.00%      0.00% # Number of instructions fetched each cycle (Total)
system.switch_cpus0.fetch.rateDist::0        45224514     54.36%     54.36% # Number of instructions fetched each cycle (Total)
system.switch_cpus0.fetch.rateDist::1         2512831      3.02%     57.38% # Number of instructions fetched each cycle (Total)
system.switch_cpus0.fetch.rateDist::2         4698801      5.65%     63.03% # Number of instructions fetched each cycle (Total)
system.switch_cpus0.fetch.rateDist::3         4662715      5.60%     68.64% # Number of instructions fetched each cycle (Total)
system.switch_cpus0.fetch.rateDist::4         2906253      3.49%     72.13% # Number of instructions fetched each cycle (Total)
system.switch_cpus0.fetch.rateDist::5         2305239      2.77%     74.90% # Number of instructions fetched each cycle (Total)
system.switch_cpus0.fetch.rateDist::6         1445606      1.74%     76.64% # Number of instructions fetched each cycle (Total)
system.switch_cpus0.fetch.rateDist::7         1360939      1.64%     78.27% # Number of instructions fetched each cycle (Total)
system.switch_cpus0.fetch.rateDist::8        18073763     21.73%    100.00% # Number of instructions fetched each cycle (Total)
system.switch_cpus0.fetch.rateDist::overflows            0      0.00%    100.00% # Number of instructions fetched each cycle (Total)
system.switch_cpus0.fetch.rateDist::min_value            0                       # Number of instructions fetched each cycle (Total)
system.switch_cpus0.fetch.rateDist::max_value            8                       # Number of instructions fetched each cycle (Total)
system.switch_cpus0.fetch.rateDist::total     83190661                       # Number of instructions fetched each cycle (Total)
system.switch_cpus0.fetch.branchRate         0.369885                       # Number of branch fetches per cycle
system.switch_cpus0.fetch.rate               2.032389                       # Number of inst fetches per cycle
system.switch_cpus0.decode.IdleCycles        32447370                       # Number of cycles decode is idle
system.switch_cpus0.decode.BlockedCycles      5101215                       # Number of cycles decode is blocked
system.switch_cpus0.decode.RunCycles         36472587                       # Number of cycles decode is running
system.switch_cpus0.decode.UnblockCycles       224722                       # Number of cycles decode is unblocking
system.switch_cpus0.decode.SquashCycles       8944759                       # Number of cycles decode is squashing
system.switch_cpus0.decode.BranchResolved      5263127                       # Number of times decode resolved a branch
system.switch_cpus0.decode.BranchMispred          257                       # Number of times decode detected a branch misprediction
system.switch_cpus0.decode.DecodedInsts     205105688                       # Number of instructions handled by decode
system.switch_cpus0.decode.SquashedInsts         1391                       # Number of squashed instructions handled by decode
system.switch_cpus0.rename.SquashCycles       8944759                       # Number of cycles rename is squashing
system.switch_cpus0.rename.IdleCycles        34802634                       # Number of cycles rename is idle
system.switch_cpus0.rename.BlockCycles         986273                       # Number of cycles rename is blocking
system.switch_cpus0.rename.serializeStallCycles       887686                       # count of cycles rename stalled for serializing inst
system.switch_cpus0.rename.RunCycles         34297277                       # Number of cycles rename is running
system.switch_cpus0.rename.UnblockCycles      3272024                       # Number of cycles rename is unblocking
system.switch_cpus0.rename.RenamedInsts     197800509                       # Number of instructions processed by rename
system.switch_cpus0.rename.ROBFullEvents           10                       # Number of times rename has blocked due to ROB full
system.switch_cpus0.rename.IQFullEvents       1359516                       # Number of times rename has blocked due to IQ full
system.switch_cpus0.rename.LSQFullEvents      1002624                       # Number of times rename has blocked due to LSQ full
system.switch_cpus0.rename.RenamedOperands    277726070                       # Number of destination operands rename has renamed
system.switch_cpus0.rename.RenameLookups    922819572                       # Number of register rename lookups that rename has made
system.switch_cpus0.rename.int_rename_lookups    922819572                       # Number of integer rename lookups
system.switch_cpus0.rename.CommittedMaps    171704564                       # Number of HB maps that are committed
system.switch_cpus0.rename.UndoneMaps       106021501                       # Number of HB maps that are undone due to squashing
system.switch_cpus0.rename.serializingInsts        35210                       # count of serializing insts renamed
system.switch_cpus0.rename.tempSerializingInsts        16906                       # count of temporary serializing insts renamed
system.switch_cpus0.rename.skidInsts          9118425                       # count of insts added to the skid buffer
system.switch_cpus0.memDep0.insertedLoads     18306843                       # Number of loads inserted to the mem dependence unit.
system.switch_cpus0.memDep0.insertedStores      9349209                       # Number of stores inserted to the mem dependence unit.
system.switch_cpus0.memDep0.conflictingLoads       117382                       # Number of conflicting loads.
system.switch_cpus0.memDep0.conflictingStores      3289410                       # Number of conflicting stores.
system.switch_cpus0.iq.iqInstsAdded         186441068                       # Number of instructions added to the IQ (excludes non-spec)
system.switch_cpus0.iq.iqNonSpecInstsAdded        33812                       # Number of non-speculative instructions added to the IQ
system.switch_cpus0.iq.iqInstsIssued        148475234                       # Number of instructions issued
system.switch_cpus0.iq.iqSquashedInstsIssued       291788                       # Number of squashed instructions issued
system.switch_cpus0.iq.iqSquashedInstsExamined     63076048                       # Number of squashed instructions iterated over during squash; mainly for profiling
system.switch_cpus0.iq.iqSquashedOperandsExamined    193010748                       # Number of squashed operands that are examined and possibly removed from graph
system.switch_cpus0.iq.issued_per_cycle::samples     83190661                       # Number of insts issued each cycle
system.switch_cpus0.iq.issued_per_cycle::mean     1.784758                       # Number of insts issued each cycle
system.switch_cpus0.iq.issued_per_cycle::stdev     1.896924                       # Number of insts issued each cycle
system.switch_cpus0.iq.issued_per_cycle::underflows            0      0.00%      0.00% # Number of insts issued each cycle
system.switch_cpus0.iq.issued_per_cycle::0     28374364     34.11%     34.11% # Number of insts issued each cycle
system.switch_cpus0.iq.issued_per_cycle::1     18099954     21.76%     55.86% # Number of insts issued each cycle
system.switch_cpus0.iq.issued_per_cycle::2     12014875     14.44%     70.31% # Number of insts issued each cycle
system.switch_cpus0.iq.issued_per_cycle::3      7844582      9.43%     79.74% # Number of insts issued each cycle
system.switch_cpus0.iq.issued_per_cycle::4      8260337      9.93%     89.67% # Number of insts issued each cycle
system.switch_cpus0.iq.issued_per_cycle::5      3993019      4.80%     94.47% # Number of insts issued each cycle
system.switch_cpus0.iq.issued_per_cycle::6      3152505      3.79%     98.26% # Number of insts issued each cycle
system.switch_cpus0.iq.issued_per_cycle::7       717889      0.86%     99.12% # Number of insts issued each cycle
system.switch_cpus0.iq.issued_per_cycle::8       733136      0.88%    100.00% # Number of insts issued each cycle
system.switch_cpus0.iq.issued_per_cycle::overflows            0      0.00%    100.00% # Number of insts issued each cycle
system.switch_cpus0.iq.issued_per_cycle::min_value            0                       # Number of insts issued each cycle
system.switch_cpus0.iq.issued_per_cycle::max_value            8                       # Number of insts issued each cycle
system.switch_cpus0.iq.issued_per_cycle::total     83190661                       # Number of insts issued each cycle
system.switch_cpus0.iq.fu_full::No_OpClass            0      0.00%      0.00% # attempts to use FU when none available
system.switch_cpus0.iq.fu_full::IntAlu         924824     72.45%     72.45% # attempts to use FU when none available
system.switch_cpus0.iq.fu_full::IntMult             0      0.00%     72.45% # attempts to use FU when none available
system.switch_cpus0.iq.fu_full::IntDiv              0      0.00%     72.45% # attempts to use FU when none available
system.switch_cpus0.iq.fu_full::FloatAdd            0      0.00%     72.45% # attempts to use FU when none available
system.switch_cpus0.iq.fu_full::FloatCmp            0      0.00%     72.45% # attempts to use FU when none available
system.switch_cpus0.iq.fu_full::FloatCvt            0      0.00%     72.45% # attempts to use FU when none available
system.switch_cpus0.iq.fu_full::FloatMult            0      0.00%     72.45% # attempts to use FU when none available
system.switch_cpus0.iq.fu_full::FloatDiv            0      0.00%     72.45% # attempts to use FU when none available
system.switch_cpus0.iq.fu_full::FloatSqrt            0      0.00%     72.45% # attempts to use FU when none available
system.switch_cpus0.iq.fu_full::SimdAdd             0      0.00%     72.45% # attempts to use FU when none available
system.switch_cpus0.iq.fu_full::SimdAddAcc            0      0.00%     72.45% # attempts to use FU when none available
system.switch_cpus0.iq.fu_full::SimdAlu             0      0.00%     72.45% # attempts to use FU when none available
system.switch_cpus0.iq.fu_full::SimdCmp             0      0.00%     72.45% # attempts to use FU when none available
system.switch_cpus0.iq.fu_full::SimdCvt             0      0.00%     72.45% # attempts to use FU when none available
system.switch_cpus0.iq.fu_full::SimdMisc            0      0.00%     72.45% # attempts to use FU when none available
system.switch_cpus0.iq.fu_full::SimdMult            0      0.00%     72.45% # attempts to use FU when none available
system.switch_cpus0.iq.fu_full::SimdMultAcc            0      0.00%     72.45% # attempts to use FU when none available
system.switch_cpus0.iq.fu_full::SimdShift            0      0.00%     72.45% # attempts to use FU when none available
system.switch_cpus0.iq.fu_full::SimdShiftAcc            0      0.00%     72.45% # attempts to use FU when none available
system.switch_cpus0.iq.fu_full::SimdSqrt            0      0.00%     72.45% # attempts to use FU when none available
system.switch_cpus0.iq.fu_full::SimdFloatAdd            0      0.00%     72.45% # attempts to use FU when none available
system.switch_cpus0.iq.fu_full::SimdFloatAlu            0      0.00%     72.45% # attempts to use FU when none available
system.switch_cpus0.iq.fu_full::SimdFloatCmp            0      0.00%     72.45% # attempts to use FU when none available
system.switch_cpus0.iq.fu_full::SimdFloatCvt            0      0.00%     72.45% # attempts to use FU when none available
system.switch_cpus0.iq.fu_full::SimdFloatDiv            0      0.00%     72.45% # attempts to use FU when none available
system.switch_cpus0.iq.fu_full::SimdFloatMisc            0      0.00%     72.45% # attempts to use FU when none available
system.switch_cpus0.iq.fu_full::SimdFloatMult            0      0.00%     72.45% # attempts to use FU when none available
system.switch_cpus0.iq.fu_full::SimdFloatMultAcc            0      0.00%     72.45% # attempts to use FU when none available
system.switch_cpus0.iq.fu_full::SimdFloatSqrt            0      0.00%     72.45% # attempts to use FU when none available
system.switch_cpus0.iq.fu_full::MemRead        177241     13.89%     86.34% # attempts to use FU when none available
system.switch_cpus0.iq.fu_full::MemWrite       174418     13.66%    100.00% # attempts to use FU when none available
system.switch_cpus0.iq.fu_full::IprAccess            0      0.00%    100.00% # attempts to use FU when none available
system.switch_cpus0.iq.fu_full::InstPrefetch            0      0.00%    100.00% # attempts to use FU when none available
system.switch_cpus0.iq.FU_type_0::No_OpClass            0      0.00%      0.00% # Type of FU issued
system.switch_cpus0.iq.FU_type_0::IntAlu    124201186     83.65%     83.65% # Type of FU issued
system.switch_cpus0.iq.FU_type_0::IntMult      1994588      1.34%     84.99% # Type of FU issued
system.switch_cpus0.iq.FU_type_0::IntDiv            0      0.00%     84.99% # Type of FU issued
system.switch_cpus0.iq.FU_type_0::FloatAdd            0      0.00%     84.99% # Type of FU issued
system.switch_cpus0.iq.FU_type_0::FloatCmp            0      0.00%     84.99% # Type of FU issued
system.switch_cpus0.iq.FU_type_0::FloatCvt            0      0.00%     84.99% # Type of FU issued
system.switch_cpus0.iq.FU_type_0::FloatMult            0      0.00%     84.99% # Type of FU issued
system.switch_cpus0.iq.FU_type_0::FloatDiv            0      0.00%     84.99% # Type of FU issued
system.switch_cpus0.iq.FU_type_0::FloatSqrt            0      0.00%     84.99% # Type of FU issued
system.switch_cpus0.iq.FU_type_0::SimdAdd            0      0.00%     84.99% # Type of FU issued
system.switch_cpus0.iq.FU_type_0::SimdAddAcc            0      0.00%     84.99% # Type of FU issued
system.switch_cpus0.iq.FU_type_0::SimdAlu            0      0.00%     84.99% # Type of FU issued
system.switch_cpus0.iq.FU_type_0::SimdCmp            0      0.00%     84.99% # Type of FU issued
system.switch_cpus0.iq.FU_type_0::SimdCvt            0      0.00%     84.99% # Type of FU issued
system.switch_cpus0.iq.FU_type_0::SimdMisc            0      0.00%     84.99% # Type of FU issued
system.switch_cpus0.iq.FU_type_0::SimdMult            0      0.00%     84.99% # Type of FU issued
system.switch_cpus0.iq.FU_type_0::SimdMultAcc            0      0.00%     84.99% # Type of FU issued
system.switch_cpus0.iq.FU_type_0::SimdShift            0      0.00%     84.99% # Type of FU issued
system.switch_cpus0.iq.FU_type_0::SimdShiftAcc            0      0.00%     84.99% # Type of FU issued
system.switch_cpus0.iq.FU_type_0::SimdSqrt            0      0.00%     84.99% # Type of FU issued
system.switch_cpus0.iq.FU_type_0::SimdFloatAdd            0      0.00%     84.99% # Type of FU issued
system.switch_cpus0.iq.FU_type_0::SimdFloatAlu            0      0.00%     84.99% # Type of FU issued
system.switch_cpus0.iq.FU_type_0::SimdFloatCmp            0      0.00%     84.99% # Type of FU issued
system.switch_cpus0.iq.FU_type_0::SimdFloatCvt            0      0.00%     84.99% # Type of FU issued
system.switch_cpus0.iq.FU_type_0::SimdFloatDiv            0      0.00%     84.99% # Type of FU issued
system.switch_cpus0.iq.FU_type_0::SimdFloatMisc        16906      0.01%     85.01% # Type of FU issued
system.switch_cpus0.iq.FU_type_0::SimdFloatMult            0      0.00%     85.01% # Type of FU issued
system.switch_cpus0.iq.FU_type_0::SimdFloatMultAcc            0      0.00%     85.01% # Type of FU issued
system.switch_cpus0.iq.FU_type_0::SimdFloatSqrt            0      0.00%     85.01% # Type of FU issued
system.switch_cpus0.iq.FU_type_0::MemRead     14358619      9.67%     94.68% # Type of FU issued
system.switch_cpus0.iq.FU_type_0::MemWrite      7903935      5.32%    100.00% # Type of FU issued
system.switch_cpus0.iq.FU_type_0::IprAccess            0      0.00%    100.00% # Type of FU issued
system.switch_cpus0.iq.FU_type_0::InstPrefetch            0      0.00%    100.00% # Type of FU issued
system.switch_cpus0.iq.FU_type_0::total     148475234                       # Type of FU issued
system.switch_cpus0.iq.rate                  1.765416                       # Inst issue rate
system.switch_cpus0.iq.fu_busy_cnt            1276483                       # FU busy when requested
system.switch_cpus0.iq.fu_busy_rate          0.008597                       # FU busy rate (busy events/executed inst)
system.switch_cpus0.iq.int_inst_queue_reads    381709400                       # Number of integer instruction queue reads
system.switch_cpus0.iq.int_inst_queue_writes    249551256                       # Number of integer instruction queue writes
system.switch_cpus0.iq.int_inst_queue_wakeup_accesses    145076460                       # Number of integer instruction queue wakeup accesses
system.switch_cpus0.iq.fp_inst_queue_reads            0                       # Number of floating instruction queue reads
system.switch_cpus0.iq.fp_inst_queue_writes            0                       # Number of floating instruction queue writes
system.switch_cpus0.iq.fp_inst_queue_wakeup_accesses            0                       # Number of floating instruction queue wakeup accesses
system.switch_cpus0.iq.int_alu_accesses     149751717                       # Number of integer alu accesses
system.switch_cpus0.iq.fp_alu_accesses              0                       # Number of floating point alu accesses
system.switch_cpus0.iew.lsq.thread0.forwLoads       464655                       # Number of loads that had data forwarded from stores
system.switch_cpus0.iew.lsq.thread0.invAddrLoads            0                       # Number of loads ignored due to an invalid address
system.switch_cpus0.iew.lsq.thread0.squashedLoads      7113408                       # Number of loads squashed
system.switch_cpus0.iew.lsq.thread0.ignoredResponses         1989                       # Number of memory responses ignored because the instruction is squashed
system.switch_cpus0.iew.lsq.thread0.memOrderViolation          328                       # Number of memory ordering violations
system.switch_cpus0.iew.lsq.thread0.squashedStores      2258167                       # Number of stores squashed
system.switch_cpus0.iew.lsq.thread0.invAddrSwpfs            0                       # Number of software prefetches ignored due to an invalid address
system.switch_cpus0.iew.lsq.thread0.blockedLoads            0                       # Number of blocked loads due to partial load-store forwarding
system.switch_cpus0.iew.lsq.thread0.rescheduledLoads            0                       # Number of loads that were rescheduled
system.switch_cpus0.iew.lsq.thread0.cacheBlocked            0                       # Number of times an access to memory failed due to the cache being blocked
system.switch_cpus0.iew.iewIdleCycles               0                       # Number of cycles IEW is idle
system.switch_cpus0.iew.iewSquashCycles       8944759                       # Number of cycles IEW is squashing
system.switch_cpus0.iew.iewBlockCycles         510549                       # Number of cycles IEW is blocking
system.switch_cpus0.iew.iewUnblockCycles        88901                       # Number of cycles IEW is unblocking
system.switch_cpus0.iew.iewDispatchedInsts    186474885                       # Number of instructions dispatched to IQ
system.switch_cpus0.iew.iewDispSquashedInsts       371187                       # Number of squashed instructions skipped by dispatch
system.switch_cpus0.iew.iewDispLoadInsts     18306843                       # Number of dispatched load instructions
system.switch_cpus0.iew.iewDispStoreInsts      9349209                       # Number of dispatched store instructions
system.switch_cpus0.iew.iewDispNonSpecInsts        16906                       # Number of dispatched non-speculative instructions
system.switch_cpus0.iew.iewIQFullEvents         69707                       # Number of times the IQ has become full, causing a stall
system.switch_cpus0.iew.iewLSQFullEvents            0                       # Number of times the LSQ has become full, causing a stall
system.switch_cpus0.iew.memOrderViolationEvents          328                       # Number of memory order violations
system.switch_cpus0.iew.predictedTakenIncorrect      1297999                       # Number of branches that were predicted taken incorrectly
system.switch_cpus0.iew.predictedNotTakenIncorrect      1156759                       # Number of branches that were predicted not taken incorrectly
system.switch_cpus0.iew.branchMispredicts      2454758                       # Number of branch mispredicts detected at execute
system.switch_cpus0.iew.iewExecutedInsts    146499521                       # Number of executed instructions
system.switch_cpus0.iew.iewExecLoadInsts     13699229                       # Number of load instructions executed
system.switch_cpus0.iew.iewExecSquashedInsts      1975713                       # Number of squashed instructions skipped in execute
system.switch_cpus0.iew.exec_swp                    0                       # number of swp insts executed
system.switch_cpus0.iew.exec_nop                    5                       # number of nop insts executed
system.switch_cpus0.iew.exec_refs            21416797                       # number of memory reference insts executed
system.switch_cpus0.iew.exec_branches        20773216                       # Number of branches executed
system.switch_cpus0.iew.exec_stores           7717568                       # Number of stores executed
system.switch_cpus0.iew.exec_rate            1.741924                       # Inst execution rate
system.switch_cpus0.iew.wb_sent             145117742                       # cumulative count of insts sent to commit
system.switch_cpus0.iew.wb_count            145076460                       # cumulative count of insts written-back
system.switch_cpus0.iew.wb_producers         92469586                       # num instructions producing a value
system.switch_cpus0.iew.wb_consumers        265391058                       # num instructions consuming a value
system.switch_cpus0.iew.wb_penalized                0                       # number of instrctions required to write to 'other' IQ
system.switch_cpus0.iew.wb_rate              1.725004                       # insts written-back per cycle
system.switch_cpus0.iew.wb_fanout            0.348428                       # average fanout of values written-back
system.switch_cpus0.iew.wb_penalized_rate            0                       # fraction of instructions written-back that wrote to 'other' IQ
system.switch_cpus0.commit.commitCommittedInsts    100000001                       # The number of committed instructions
system.switch_cpus0.commit.commitCommittedOps    123129416                       # The number of committed instructions
system.switch_cpus0.commit.commitSquashedInsts     63345921                       # The number of squashed insts skipped by commit
system.switch_cpus0.commit.commitNonSpecStalls        33812                       # The number of times commit has been forced to stall to communicate backwards
system.switch_cpus0.commit.branchMispredicts      2102929                       # The number of times a branch was mispredicted
system.switch_cpus0.commit.committed_per_cycle::samples     74245902                       # Number of insts commited each cycle
system.switch_cpus0.commit.committed_per_cycle::mean     1.658400                       # Number of insts commited each cycle
system.switch_cpus0.commit.committed_per_cycle::stdev     2.150207                       # Number of insts commited each cycle
system.switch_cpus0.commit.committed_per_cycle::underflows            0      0.00%      0.00% # Number of insts commited each cycle
system.switch_cpus0.commit.committed_per_cycle::0     28038786     37.76%     37.76% # Number of insts commited each cycle
system.switch_cpus0.commit.committed_per_cycle::1     20857240     28.09%     65.86% # Number of insts commited each cycle
system.switch_cpus0.commit.committed_per_cycle::2      8664637     11.67%     77.53% # Number of insts commited each cycle
system.switch_cpus0.commit.committed_per_cycle::3      4323137      5.82%     83.35% # Number of insts commited each cycle
system.switch_cpus0.commit.committed_per_cycle::4      4312738      5.81%     89.16% # Number of insts commited each cycle
system.switch_cpus0.commit.committed_per_cycle::5      1742878      2.35%     91.51% # Number of insts commited each cycle
system.switch_cpus0.commit.committed_per_cycle::6      1753405      2.36%     93.87% # Number of insts commited each cycle
system.switch_cpus0.commit.committed_per_cycle::7       936929      1.26%     95.13% # Number of insts commited each cycle
system.switch_cpus0.commit.committed_per_cycle::8      3616152      4.87%    100.00% # Number of insts commited each cycle
system.switch_cpus0.commit.committed_per_cycle::overflows            0      0.00%    100.00% # Number of insts commited each cycle
system.switch_cpus0.commit.committed_per_cycle::min_value            0                       # Number of insts commited each cycle
system.switch_cpus0.commit.committed_per_cycle::max_value            8                       # Number of insts commited each cycle
system.switch_cpus0.commit.committed_per_cycle::total     74245902                       # Number of insts commited each cycle
system.switch_cpus0.commit.committedInsts    100000001                       # Number of instructions committed
system.switch_cpus0.commit.committedOps     123129416                       # Number of ops (including micro ops) committed
system.switch_cpus0.commit.swp_count                0                       # Number of s/w prefetches committed
system.switch_cpus0.commit.refs              18284477                       # Number of memory references committed
system.switch_cpus0.commit.loads             11193435                       # Number of loads committed
system.switch_cpus0.commit.membars              16906                       # Number of memory barriers committed
system.switch_cpus0.commit.branches          17772285                       # Number of branches committed
system.switch_cpus0.commit.fp_insts                 0                       # Number of committed floating point instructions.
system.switch_cpus0.commit.int_insts        110930287                       # Number of committed integer instructions.
system.switch_cpus0.commit.function_calls      2539564                       # Number of function calls committed.
system.switch_cpus0.commit.bw_lim_events      3616152                       # number cycles where commit BW limit reached
system.switch_cpus0.commit.bw_limited               0                       # number of insts not committed due to BW limits
system.switch_cpus0.rob.rob_reads           257105087                       # The number of ROB reads
system.switch_cpus0.rob.rob_writes          381901222                       # The number of ROB writes
system.switch_cpus0.timesIdled                  32237                       # Number of times that the entire CPU went into an idle state and unscheduled itself
system.switch_cpus0.idleCycles                 911462                       # Total number of cycles that the CPU has spent unscheduled due to idling
system.switch_cpus0.committedInsts          100000001                       # Number of Instructions Simulated
system.switch_cpus0.committedOps            123129416                       # Number of Ops (including micro ops) Simulated
system.switch_cpus0.committedInsts_total    100000001                       # Number of Instructions Simulated
system.switch_cpus0.cpi                      0.841021                       # CPI: Cycles Per Instruction
system.switch_cpus0.cpi_total                0.841021                       # CPI: Total CPI of All Threads
system.switch_cpus0.ipc                      1.189031                       # IPC: Instructions Per Cycle
system.switch_cpus0.ipc_total                1.189031                       # IPC: Total IPC of All Threads
system.switch_cpus0.int_regfile_reads       658096409                       # number of integer regfile reads
system.switch_cpus0.int_regfile_writes      201531138                       # number of integer regfile writes
system.switch_cpus0.misc_regfile_reads      188380995                       # number of misc regfile reads
system.switch_cpus0.misc_regfile_writes         33812                       # number of misc regfile writes
system.switch_cpus1.dtb.inst_hits                   0                       # ITB inst hits
system.switch_cpus1.dtb.inst_misses                 0                       # ITB inst misses
system.switch_cpus1.dtb.read_hits                   0                       # DTB read hits
system.switch_cpus1.dtb.read_misses                 0                       # DTB read misses
system.switch_cpus1.dtb.write_hits                  0                       # DTB write hits
system.switch_cpus1.dtb.write_misses                0                       # DTB write misses
system.switch_cpus1.dtb.flush_tlb                   0                       # Number of times complete TLB was flushed
system.switch_cpus1.dtb.flush_tlb_mva               0                       # Number of times TLB was flushed by MVA
system.switch_cpus1.dtb.flush_tlb_mva_asid            0                       # Number of times TLB was flushed by MVA & ASID
system.switch_cpus1.dtb.flush_tlb_asid              0                       # Number of times TLB was flushed by ASID
system.switch_cpus1.dtb.flush_entries               0                       # Number of entries that have been flushed from TLB
system.switch_cpus1.dtb.align_faults                0                       # Number of TLB faults due to alignment restrictions
system.switch_cpus1.dtb.prefetch_faults             0                       # Number of TLB faults due to prefetch
system.switch_cpus1.dtb.domain_faults               0                       # Number of TLB faults due to domain restrictions
system.switch_cpus1.dtb.perms_faults                0                       # Number of TLB faults due to permissions restrictions
system.switch_cpus1.dtb.read_accesses               0                       # DTB read accesses
system.switch_cpus1.dtb.write_accesses              0                       # DTB write accesses
system.switch_cpus1.dtb.inst_accesses               0                       # ITB inst accesses
system.switch_cpus1.dtb.hits                        0                       # DTB hits
system.switch_cpus1.dtb.misses                      0                       # DTB misses
system.switch_cpus1.dtb.accesses                    0                       # DTB accesses
system.switch_cpus1.itb.inst_hits                   0                       # ITB inst hits
system.switch_cpus1.itb.inst_misses                 0                       # ITB inst misses
system.switch_cpus1.itb.read_hits                   0                       # DTB read hits
system.switch_cpus1.itb.read_misses                 0                       # DTB read misses
system.switch_cpus1.itb.write_hits                  0                       # DTB write hits
system.switch_cpus1.itb.write_misses                0                       # DTB write misses
system.switch_cpus1.itb.flush_tlb                   0                       # Number of times complete TLB was flushed
system.switch_cpus1.itb.flush_tlb_mva               0                       # Number of times TLB was flushed by MVA
system.switch_cpus1.itb.flush_tlb_mva_asid            0                       # Number of times TLB was flushed by MVA & ASID
system.switch_cpus1.itb.flush_tlb_asid              0                       # Number of times TLB was flushed by ASID
system.switch_cpus1.itb.flush_entries               0                       # Number of entries that have been flushed from TLB
system.switch_cpus1.itb.align_faults                0                       # Number of TLB faults due to alignment restrictions
system.switch_cpus1.itb.prefetch_faults             0                       # Number of TLB faults due to prefetch
system.switch_cpus1.itb.domain_faults               0                       # Number of TLB faults due to domain restrictions
system.switch_cpus1.itb.perms_faults                0                       # Number of TLB faults due to permissions restrictions
system.switch_cpus1.itb.read_accesses               0                       # DTB read accesses
system.switch_cpus1.itb.write_accesses              0                       # DTB write accesses
system.switch_cpus1.itb.inst_accesses               0                       # ITB inst accesses
system.switch_cpus1.itb.hits                        0                       # DTB hits
system.switch_cpus1.itb.misses                      0                       # DTB misses
system.switch_cpus1.itb.accesses                    0                       # DTB accesses
system.cpu1.workload.num_syscalls                   0                       # Number of system calls
system.switch_cpus1.numCycles                84102123                       # number of cpu cycles simulated
system.switch_cpus1.numWorkItemsStarted             0                       # number of work items this cpu started
system.switch_cpus1.numWorkItemsCompleted            0                       # number of work items this cpu completed
system.switch_cpus1.BPredUnit.lookups        30801121                       # Number of BP lookups
system.switch_cpus1.BPredUnit.condPredicted     25069761                       # Number of conditional branches predicted
system.switch_cpus1.BPredUnit.condIncorrect      2058156                       # Number of conditional branches incorrect
system.switch_cpus1.BPredUnit.BTBLookups     13118403                       # Number of BTB lookups
system.switch_cpus1.BPredUnit.BTBHits        12138530                       # Number of BTB hits
system.switch_cpus1.BPredUnit.BTBCorrect            0                       # Number of correct BTB predictions (this stat may not work properly.
system.switch_cpus1.BPredUnit.usedRAS         3168516                       # Number of times the RAS was used to get a target.
system.switch_cpus1.BPredUnit.RASInCorrect        90795                       # Number of incorrect RAS predictions.
system.switch_cpus1.fetch.icacheStallCycles     34040955                       # Number of cycles fetch is stalled on an Icache miss
system.switch_cpus1.fetch.Insts             168216907                       # Number of instructions fetch has processed
system.switch_cpus1.fetch.Branches           30801121                       # Number of branches that fetch encountered
system.switch_cpus1.fetch.predictedBranches     15307046                       # Number of branches that fetch has predicted taken
system.switch_cpus1.fetch.Cycles             35343802                       # Number of cycles fetch has run and was not squashing or blocked
system.switch_cpus1.fetch.SquashCycles       10560396                       # Number of cycles fetch has spent squashing
system.switch_cpus1.fetch.BlockedCycles       5175372                       # Number of cycles fetch has spent blocked
system.switch_cpus1.fetch.PendingTrapStallCycles           29                       # Number of stall cycles due to pending traps
system.switch_cpus1.fetch.CacheLines         16640185                       # Number of cache lines fetched
system.switch_cpus1.fetch.IcacheSquashes       828074                       # Number of outstanding Icache misses that were squashed
system.switch_cpus1.fetch.rateDist::samples     83027390                       # Number of instructions fetched each cycle (Total)
system.switch_cpus1.fetch.rateDist::mean     2.495165                       # Number of instructions fetched each cycle (Total)
system.switch_cpus1.fetch.rateDist::stdev     3.300533                       # Number of instructions fetched each cycle (Total)
system.switch_cpus1.fetch.rateDist::underflows            0      0.00%      0.00% # Number of instructions fetched each cycle (Total)
system.switch_cpus1.fetch.rateDist::0        47683588     57.43%     57.43% # Number of instructions fetched each cycle (Total)
system.switch_cpus1.fetch.rateDist::1         1908769      2.30%     59.73% # Number of instructions fetched each cycle (Total)
system.switch_cpus1.fetch.rateDist::2         2486231      2.99%     62.72% # Number of instructions fetched each cycle (Total)
system.switch_cpus1.fetch.rateDist::3         3741455      4.51%     67.23% # Number of instructions fetched each cycle (Total)
system.switch_cpus1.fetch.rateDist::4         3637777      4.38%     71.61% # Number of instructions fetched each cycle (Total)
system.switch_cpus1.fetch.rateDist::5         2766480      3.33%     74.94% # Number of instructions fetched each cycle (Total)
system.switch_cpus1.fetch.rateDist::6         1643670      1.98%     76.92% # Number of instructions fetched each cycle (Total)
system.switch_cpus1.fetch.rateDist::7         2459479      2.96%     79.89% # Number of instructions fetched each cycle (Total)
system.switch_cpus1.fetch.rateDist::8        16699941     20.11%    100.00% # Number of instructions fetched each cycle (Total)
system.switch_cpus1.fetch.rateDist::overflows            0      0.00%    100.00% # Number of instructions fetched each cycle (Total)
system.switch_cpus1.fetch.rateDist::min_value            0                       # Number of instructions fetched each cycle (Total)
system.switch_cpus1.fetch.rateDist::max_value            8                       # Number of instructions fetched each cycle (Total)
system.switch_cpus1.fetch.rateDist::total     83027390                       # Number of instructions fetched each cycle (Total)
system.switch_cpus1.fetch.branchRate         0.366235                       # Number of branch fetches per cycle
system.switch_cpus1.fetch.rate               2.000151                       # Number of inst fetches per cycle
system.switch_cpus1.decode.IdleCycles        35165065                       # Number of cycles decode is idle
system.switch_cpus1.decode.BlockedCycles      5059149                       # Number of cycles decode is blocked
system.switch_cpus1.decode.RunCycles         34070100                       # Number of cycles decode is running
system.switch_cpus1.decode.UnblockCycles       266084                       # Number of cycles decode is unblocking
system.switch_cpus1.decode.SquashCycles       8466991                       # Number of cycles decode is squashing
system.switch_cpus1.decode.BranchResolved      5213443                       # Number of times decode resolved a branch
system.switch_cpus1.decode.BranchMispred          269                       # Number of times decode detected a branch misprediction
system.switch_cpus1.decode.DecodedInsts     201230198                       # Number of instructions handled by decode
system.switch_cpus1.decode.SquashedInsts         1299                       # Number of squashed instructions handled by decode
system.switch_cpus1.rename.SquashCycles       8466991                       # Number of cycles rename is squashing
system.switch_cpus1.rename.IdleCycles        37031558                       # Number of cycles rename is idle
system.switch_cpus1.rename.BlockCycles        1020520                       # Number of cycles rename is blocking
system.switch_cpus1.rename.serializeStallCycles      1325233                       # count of cycles rename stalled for serializing inst
system.switch_cpus1.rename.RunCycles         32426308                       # Number of cycles rename is running
system.switch_cpus1.rename.UnblockCycles      2756774                       # Number of cycles rename is unblocking
system.switch_cpus1.rename.RenamedInsts     195358200                       # Number of instructions processed by rename
system.switch_cpus1.rename.ROBFullEvents          892                       # Number of times rename has blocked due to ROB full
system.switch_cpus1.rename.IQFullEvents       1192715                       # Number of times rename has blocked due to IQ full
system.switch_cpus1.rename.LSQFullEvents       865111                       # Number of times rename has blocked due to LSQ full
system.switch_cpus1.rename.FullRegisterEvents           17                       # Number of times there has been no free registers
system.switch_cpus1.rename.RenamedOperands    272224617                       # Number of destination operands rename has renamed
system.switch_cpus1.rename.RenameLookups    909792846                       # Number of register rename lookups that rename has made
system.switch_cpus1.rename.int_rename_lookups    909792846                       # Number of integer rename lookups
system.switch_cpus1.rename.CommittedMaps    169261166                       # Number of HB maps that are committed
system.switch_cpus1.rename.UndoneMaps       102963392                       # Number of HB maps that are undone due to squashing
system.switch_cpus1.rename.serializingInsts        41365                       # count of serializing insts renamed
system.switch_cpus1.rename.tempSerializingInsts        23319                       # count of temporary serializing insts renamed
system.switch_cpus1.rename.skidInsts          7793490                       # count of insts added to the skid buffer
system.switch_cpus1.memDep0.insertedLoads     18102131                       # Number of loads inserted to the mem dependence unit.
system.switch_cpus1.memDep0.insertedStores      9593793                       # Number of stores inserted to the mem dependence unit.
system.switch_cpus1.memDep0.conflictingLoads       185812                       # Number of conflicting loads.
system.switch_cpus1.memDep0.conflictingStores      3067144                       # Number of conflicting stores.
system.switch_cpus1.iq.iqInstsAdded         181564196                       # Number of instructions added to the IQ (excludes non-spec)
system.switch_cpus1.iq.iqNonSpecInstsAdded        39311                       # Number of non-speculative instructions added to the IQ
system.switch_cpus1.iq.iqInstsIssued        146269451                       # Number of instructions issued
system.switch_cpus1.iq.iqSquashedInstsIssued       273977                       # Number of squashed instructions issued
system.switch_cpus1.iq.iqSquashedInstsExamined     59027732                       # Number of squashed instructions iterated over during squash; mainly for profiling
system.switch_cpus1.iq.iqSquashedOperandsExamined    179465959                       # Number of squashed operands that are examined and possibly removed from graph
system.switch_cpus1.iq.iqSquashedNonSpecRemoved         6263                       # Number of squashed non-spec instructions that were removed
system.switch_cpus1.iq.issued_per_cycle::samples     83027390                       # Number of insts issued each cycle
system.switch_cpus1.iq.issued_per_cycle::mean     1.761701                       # Number of insts issued each cycle
system.switch_cpus1.iq.issued_per_cycle::stdev     1.898061                       # Number of insts issued each cycle
system.switch_cpus1.iq.issued_per_cycle::underflows            0      0.00%      0.00% # Number of insts issued each cycle
system.switch_cpus1.iq.issued_per_cycle::0     28716213     34.59%     34.59% # Number of insts issued each cycle
system.switch_cpus1.iq.issued_per_cycle::1     18297875     22.04%     56.62% # Number of insts issued each cycle
system.switch_cpus1.iq.issued_per_cycle::2     11794021     14.20%     70.83% # Number of insts issued each cycle
system.switch_cpus1.iq.issued_per_cycle::3      8065264      9.71%     80.54% # Number of insts issued each cycle
system.switch_cpus1.iq.issued_per_cycle::4      7540895      9.08%     89.63% # Number of insts issued each cycle
system.switch_cpus1.iq.issued_per_cycle::5      4021539      4.84%     94.47% # Number of insts issued each cycle
system.switch_cpus1.iq.issued_per_cycle::6      2963922      3.57%     98.04% # Number of insts issued each cycle
system.switch_cpus1.iq.issued_per_cycle::7       888353      1.07%     99.11% # Number of insts issued each cycle
system.switch_cpus1.iq.issued_per_cycle::8       739308      0.89%    100.00% # Number of insts issued each cycle
system.switch_cpus1.iq.issued_per_cycle::overflows            0      0.00%    100.00% # Number of insts issued each cycle
system.switch_cpus1.iq.issued_per_cycle::min_value            0                       # Number of insts issued each cycle
system.switch_cpus1.iq.issued_per_cycle::max_value            8                       # Number of insts issued each cycle
system.switch_cpus1.iq.issued_per_cycle::total     83027390                       # Number of insts issued each cycle
system.switch_cpus1.iq.fu_full::No_OpClass            0      0.00%      0.00% # attempts to use FU when none available
system.switch_cpus1.iq.fu_full::IntAlu         719544     69.15%     69.15% # attempts to use FU when none available
system.switch_cpus1.iq.fu_full::IntMult             5      0.00%     69.15% # attempts to use FU when none available
system.switch_cpus1.iq.fu_full::IntDiv              0      0.00%     69.15% # attempts to use FU when none available
system.switch_cpus1.iq.fu_full::FloatAdd            0      0.00%     69.15% # attempts to use FU when none available
system.switch_cpus1.iq.fu_full::FloatCmp            0      0.00%     69.15% # attempts to use FU when none available
system.switch_cpus1.iq.fu_full::FloatCvt            0      0.00%     69.15% # attempts to use FU when none available
system.switch_cpus1.iq.fu_full::FloatMult            0      0.00%     69.15% # attempts to use FU when none available
system.switch_cpus1.iq.fu_full::FloatDiv            0      0.00%     69.15% # attempts to use FU when none available
system.switch_cpus1.iq.fu_full::FloatSqrt            0      0.00%     69.15% # attempts to use FU when none available
system.switch_cpus1.iq.fu_full::SimdAdd             0      0.00%     69.15% # attempts to use FU when none available
system.switch_cpus1.iq.fu_full::SimdAddAcc            0      0.00%     69.15% # attempts to use FU when none available
system.switch_cpus1.iq.fu_full::SimdAlu             0      0.00%     69.15% # attempts to use FU when none available
system.switch_cpus1.iq.fu_full::SimdCmp             0      0.00%     69.15% # attempts to use FU when none available
system.switch_cpus1.iq.fu_full::SimdCvt             0      0.00%     69.15% # attempts to use FU when none available
system.switch_cpus1.iq.fu_full::SimdMisc            0      0.00%     69.15% # attempts to use FU when none available
system.switch_cpus1.iq.fu_full::SimdMult            0      0.00%     69.15% # attempts to use FU when none available
system.switch_cpus1.iq.fu_full::SimdMultAcc            0      0.00%     69.15% # attempts to use FU when none available
system.switch_cpus1.iq.fu_full::SimdShift            0      0.00%     69.15% # attempts to use FU when none available
system.switch_cpus1.iq.fu_full::SimdShiftAcc            0      0.00%     69.15% # attempts to use FU when none available
system.switch_cpus1.iq.fu_full::SimdSqrt            0      0.00%     69.15% # attempts to use FU when none available
system.switch_cpus1.iq.fu_full::SimdFloatAdd            0      0.00%     69.15% # attempts to use FU when none available
system.switch_cpus1.iq.fu_full::SimdFloatAlu            0      0.00%     69.15% # attempts to use FU when none available
system.switch_cpus1.iq.fu_full::SimdFloatCmp            0      0.00%     69.15% # attempts to use FU when none available
system.switch_cpus1.iq.fu_full::SimdFloatCvt            0      0.00%     69.15% # attempts to use FU when none available
system.switch_cpus1.iq.fu_full::SimdFloatDiv            0      0.00%     69.15% # attempts to use FU when none available
system.switch_cpus1.iq.fu_full::SimdFloatMisc            0      0.00%     69.15% # attempts to use FU when none available
system.switch_cpus1.iq.fu_full::SimdFloatMult            0      0.00%     69.15% # attempts to use FU when none available
system.switch_cpus1.iq.fu_full::SimdFloatMultAcc            0      0.00%     69.15% # attempts to use FU when none available
system.switch_cpus1.iq.fu_full::SimdFloatSqrt            0      0.00%     69.15% # attempts to use FU when none available
system.switch_cpus1.iq.fu_full::MemRead        147918     14.21%     83.36% # attempts to use FU when none available
system.switch_cpus1.iq.fu_full::MemWrite       173143     16.64%    100.00% # attempts to use FU when none available
system.switch_cpus1.iq.fu_full::IprAccess            0      0.00%    100.00% # attempts to use FU when none available
system.switch_cpus1.iq.fu_full::InstPrefetch            0      0.00%    100.00% # attempts to use FU when none available
system.switch_cpus1.iq.FU_type_0::No_OpClass            0      0.00%      0.00% # Type of FU issued
system.switch_cpus1.iq.FU_type_0::IntAlu    121711111     83.21%     83.21% # Type of FU issued
system.switch_cpus1.iq.FU_type_0::IntMult      2066789      1.41%     84.62% # Type of FU issued
system.switch_cpus1.iq.FU_type_0::IntDiv            0      0.00%     84.62% # Type of FU issued
system.switch_cpus1.iq.FU_type_0::FloatAdd            0      0.00%     84.62% # Type of FU issued
system.switch_cpus1.iq.FU_type_0::FloatCmp            0      0.00%     84.62% # Type of FU issued
system.switch_cpus1.iq.FU_type_0::FloatCvt            0      0.00%     84.62% # Type of FU issued
system.switch_cpus1.iq.FU_type_0::FloatMult            0      0.00%     84.62% # Type of FU issued
system.switch_cpus1.iq.FU_type_0::FloatDiv            0      0.00%     84.62% # Type of FU issued
system.switch_cpus1.iq.FU_type_0::FloatSqrt            0      0.00%     84.62% # Type of FU issued
system.switch_cpus1.iq.FU_type_0::SimdAdd            0      0.00%     84.62% # Type of FU issued
system.switch_cpus1.iq.FU_type_0::SimdAddAcc            0      0.00%     84.62% # Type of FU issued
system.switch_cpus1.iq.FU_type_0::SimdAlu            0      0.00%     84.62% # Type of FU issued
system.switch_cpus1.iq.FU_type_0::SimdCmp            0      0.00%     84.62% # Type of FU issued
system.switch_cpus1.iq.FU_type_0::SimdCvt            0      0.00%     84.62% # Type of FU issued
system.switch_cpus1.iq.FU_type_0::SimdMisc            0      0.00%     84.62% # Type of FU issued
system.switch_cpus1.iq.FU_type_0::SimdMult            0      0.00%     84.62% # Type of FU issued
system.switch_cpus1.iq.FU_type_0::SimdMultAcc            0      0.00%     84.62% # Type of FU issued
system.switch_cpus1.iq.FU_type_0::SimdShift            0      0.00%     84.62% # Type of FU issued
system.switch_cpus1.iq.FU_type_0::SimdShiftAcc            0      0.00%     84.62% # Type of FU issued
system.switch_cpus1.iq.FU_type_0::SimdSqrt            0      0.00%     84.62% # Type of FU issued
system.switch_cpus1.iq.FU_type_0::SimdFloatAdd            0      0.00%     84.62% # Type of FU issued
system.switch_cpus1.iq.FU_type_0::SimdFloatAlu            0      0.00%     84.62% # Type of FU issued
system.switch_cpus1.iq.FU_type_0::SimdFloatCmp            0      0.00%     84.62% # Type of FU issued
system.switch_cpus1.iq.FU_type_0::SimdFloatCvt            0      0.00%     84.62% # Type of FU issued
system.switch_cpus1.iq.FU_type_0::SimdFloatDiv            0      0.00%     84.62% # Type of FU issued
system.switch_cpus1.iq.FU_type_0::SimdFloatMisc        16523      0.01%     84.63% # Type of FU issued
system.switch_cpus1.iq.FU_type_0::SimdFloatMult            0      0.00%     84.63% # Type of FU issued
system.switch_cpus1.iq.FU_type_0::SimdFloatMultAcc            0      0.00%     84.63% # Type of FU issued
system.switch_cpus1.iq.FU_type_0::SimdFloatSqrt            0      0.00%     84.63% # Type of FU issued
system.switch_cpus1.iq.FU_type_0::MemRead     14438010      9.87%     94.51% # Type of FU issued
system.switch_cpus1.iq.FU_type_0::MemWrite      8037018      5.49%    100.00% # Type of FU issued
system.switch_cpus1.iq.FU_type_0::IprAccess            0      0.00%    100.00% # Type of FU issued
system.switch_cpus1.iq.FU_type_0::InstPrefetch            0      0.00%    100.00% # Type of FU issued
system.switch_cpus1.iq.FU_type_0::total     146269451                       # Type of FU issued
system.switch_cpus1.iq.rate                  1.739189                       # Inst issue rate
system.switch_cpus1.iq.fu_busy_cnt            1040610                       # FU busy when requested
system.switch_cpus1.iq.fu_busy_rate          0.007114                       # FU busy rate (busy events/executed inst)
system.switch_cpus1.iq.int_inst_queue_reads    376880872                       # Number of integer instruction queue reads
system.switch_cpus1.iq.int_inst_queue_writes    240632085                       # Number of integer instruction queue writes
system.switch_cpus1.iq.int_inst_queue_wakeup_accesses    142165144                       # Number of integer instruction queue wakeup accesses
system.switch_cpus1.iq.fp_inst_queue_reads            0                       # Number of floating instruction queue reads
system.switch_cpus1.iq.fp_inst_queue_writes            0                       # Number of floating instruction queue writes
system.switch_cpus1.iq.fp_inst_queue_wakeup_accesses            0                       # Number of floating instruction queue wakeup accesses
system.switch_cpus1.iq.int_alu_accesses     147310061                       # Number of integer alu accesses
system.switch_cpus1.iq.fp_alu_accesses              0                       # Number of floating point alu accesses
system.switch_cpus1.iew.lsq.thread0.forwLoads       496182                       # Number of loads that had data forwarded from stores
system.switch_cpus1.iew.lsq.thread0.invAddrLoads            0                       # Number of loads ignored due to an invalid address
system.switch_cpus1.iew.lsq.thread0.squashedLoads      6932453                       # Number of loads squashed
system.switch_cpus1.iew.lsq.thread0.ignoredResponses         2087                       # Number of memory responses ignored because the instruction is squashed
system.switch_cpus1.iew.lsq.thread0.memOrderViolation          884                       # Number of memory ordering violations
system.switch_cpus1.iew.lsq.thread0.squashedStores      2434306                       # Number of stores squashed
system.switch_cpus1.iew.lsq.thread0.invAddrSwpfs            0                       # Number of software prefetches ignored due to an invalid address
system.switch_cpus1.iew.lsq.thread0.blockedLoads            0                       # Number of blocked loads due to partial load-store forwarding
system.switch_cpus1.iew.lsq.thread0.rescheduledLoads            0                       # Number of loads that were rescheduled
system.switch_cpus1.iew.lsq.thread0.cacheBlocked          182                       # Number of times an access to memory failed due to the cache being blocked
system.switch_cpus1.iew.iewIdleCycles               0                       # Number of cycles IEW is idle
system.switch_cpus1.iew.iewSquashCycles       8466991                       # Number of cycles IEW is squashing
system.switch_cpus1.iew.iewBlockCycles         597483                       # Number of cycles IEW is blocking
system.switch_cpus1.iew.iewUnblockCycles        97798                       # Number of cycles IEW is unblocking
system.switch_cpus1.iew.iewDispatchedInsts    181603510                       # Number of instructions dispatched to IQ
system.switch_cpus1.iew.iewDispSquashedInsts      1245437                       # Number of squashed instructions skipped by dispatch
system.switch_cpus1.iew.iewDispLoadInsts     18102131                       # Number of dispatched load instructions
system.switch_cpus1.iew.iewDispStoreInsts      9593793                       # Number of dispatched store instructions
system.switch_cpus1.iew.iewDispNonSpecInsts        22787                       # Number of dispatched non-speculative instructions
system.switch_cpus1.iew.iewIQFullEvents         73980                       # Number of times the IQ has become full, causing a stall
system.switch_cpus1.iew.iewLSQFullEvents            0                       # Number of times the LSQ has become full, causing a stall
system.switch_cpus1.iew.memOrderViolationEvents          884                       # Number of memory order violations
system.switch_cpus1.iew.predictedTakenIncorrect      1259955                       # Number of branches that were predicted taken incorrectly
system.switch_cpus1.iew.predictedNotTakenIncorrect      1160053                       # Number of branches that were predicted not taken incorrectly
system.switch_cpus1.iew.branchMispredicts      2420008                       # Number of branch mispredicts detected at execute
system.switch_cpus1.iew.iewExecutedInsts    143471446                       # Number of executed instructions
system.switch_cpus1.iew.iewExecLoadInsts     13592547                       # Number of load instructions executed
system.switch_cpus1.iew.iewExecSquashedInsts      2797998                       # Number of squashed instructions skipped in execute
system.switch_cpus1.iew.exec_swp                    0                       # number of swp insts executed
system.switch_cpus1.iew.exec_nop                    3                       # number of nop insts executed
system.switch_cpus1.iew.exec_refs            21450553                       # number of memory reference insts executed
system.switch_cpus1.iew.exec_branches        20097799                       # Number of branches executed
system.switch_cpus1.iew.exec_stores           7858006                       # Number of stores executed
system.switch_cpus1.iew.exec_rate            1.705919                       # Inst execution rate
system.switch_cpus1.iew.wb_sent             142203009                       # cumulative count of insts sent to commit
system.switch_cpus1.iew.wb_count            142165144                       # cumulative count of insts written-back
system.switch_cpus1.iew.wb_producers         91339674                       # num instructions producing a value
system.switch_cpus1.iew.wb_consumers        256477883                       # num instructions consuming a value
system.switch_cpus1.iew.wb_penalized                0                       # number of instrctions required to write to 'other' IQ
system.switch_cpus1.iew.wb_rate              1.690387                       # insts written-back per cycle
system.switch_cpus1.iew.wb_fanout            0.356131                       # average fanout of values written-back
system.switch_cpus1.iew.wb_penalized_rate            0                       # fraction of instructions written-back that wrote to 'other' IQ
system.switch_cpus1.commit.commitCommittedInsts     99128606                       # The number of committed instructions
system.switch_cpus1.commit.commitCommittedOps    121833228                       # The number of committed instructions
system.switch_cpus1.commit.commitSquashedInsts     59770514                       # The number of squashed insts skipped by commit
system.switch_cpus1.commit.commitNonSpecStalls        33048                       # The number of times commit has been forced to stall to communicate backwards
system.switch_cpus1.commit.branchMispredicts      2092134                       # The number of times a branch was mispredicted
system.switch_cpus1.commit.committed_per_cycle::samples     74560399                       # Number of insts commited each cycle
system.switch_cpus1.commit.committed_per_cycle::mean     1.634021                       # Number of insts commited each cycle
system.switch_cpus1.commit.committed_per_cycle::stdev     2.154327                       # Number of insts commited each cycle
system.switch_cpus1.commit.committed_per_cycle::underflows            0      0.00%      0.00% # Number of insts commited each cycle
system.switch_cpus1.commit.committed_per_cycle::0     28611657     38.37%     38.37% # Number of insts commited each cycle
system.switch_cpus1.commit.committed_per_cycle::1     21483899     28.81%     67.19% # Number of insts commited each cycle
system.switch_cpus1.commit.committed_per_cycle::2      7917697     10.62%     77.81% # Number of insts commited each cycle
system.switch_cpus1.commit.committed_per_cycle::3      4535150      6.08%     83.89% # Number of insts commited each cycle
system.switch_cpus1.commit.committed_per_cycle::4      3779571      5.07%     88.96% # Number of insts commited each cycle
system.switch_cpus1.commit.committed_per_cycle::5      1854574      2.49%     91.45% # Number of insts commited each cycle
system.switch_cpus1.commit.committed_per_cycle::6      1856578      2.49%     93.94% # Number of insts commited each cycle
system.switch_cpus1.commit.committed_per_cycle::7       792321      1.06%     95.00% # Number of insts commited each cycle
system.switch_cpus1.commit.committed_per_cycle::8      3728952      5.00%    100.00% # Number of insts commited each cycle
system.switch_cpus1.commit.committed_per_cycle::overflows            0      0.00%    100.00% # Number of insts commited each cycle
system.switch_cpus1.commit.committed_per_cycle::min_value            0                       # Number of insts commited each cycle
system.switch_cpus1.commit.committed_per_cycle::max_value            8                       # Number of insts commited each cycle
system.switch_cpus1.commit.committed_per_cycle::total     74560399                       # Number of insts commited each cycle
system.switch_cpus1.commit.committedInsts     99128606                       # Number of instructions committed
system.switch_cpus1.commit.committedOps     121833228                       # Number of ops (including micro ops) committed
system.switch_cpus1.commit.swp_count                0                       # Number of s/w prefetches committed
[...]
system.cpu2.icache.ReadReq_miss_latency::switch_cpus2.inst       722113                       # number of ReadReq miss cycles
system.cpu2.icache.ReadReq_miss_latency::total       722113                       # number of ReadReq miss cycles
system.cpu2.icache.demand_miss_latency::switch_cpus2.inst       722113                       # number of demand (read+write) miss cycles
system.cpu2.icache.demand_miss_latency::total       722113                       # number of demand (read+write) miss cycles
system.cpu2.icache.overall_miss_latency::switch_cpus2.inst       722113                       # number of overall miss cycles
system.cpu2.icache.overall_miss_latency::total       722113                       # number of overall miss cycles
system.cpu2.icache.ReadReq_accesses::switch_cpus2.inst     14953021                       # number of ReadReq accesses(hits+misses)
system.cpu2.icache.ReadReq_accesses::total     14953021                       # number of ReadReq accesses(hits+misses)
system.cpu2.icache.demand_accesses::switch_cpus2.inst     14953021                       # number of demand (read+write) accesses
system.cpu2.icache.demand_accesses::total     14953021                       # number of demand (read+write) accesses
system.cpu2.icache.overall_accesses::switch_cpus2.inst     14953021                       # number of overall (read+write) accesses
system.cpu2.icache.overall_accesses::total     14953021                       # number of overall (read+write) accesses
system.cpu2.icache.ReadReq_miss_rate::switch_cpus2.inst     0.000001                       # miss rate for ReadReq accesses
system.cpu2.icache.ReadReq_miss_rate::total     0.000001                       # miss rate for ReadReq accesses
system.cpu2.icache.demand_miss_rate::switch_cpus2.inst     0.000001                       # miss rate for demand accesses
system.cpu2.icache.demand_miss_rate::total     0.000001                       # miss rate for demand accesses
system.cpu2.icache.overall_miss_rate::switch_cpus2.inst     0.000001                       # miss rate for overall accesses
system.cpu2.icache.overall_miss_rate::total     0.000001                       # miss rate for overall accesses
system.cpu2.icache.ReadReq_avg_miss_latency::switch_cpus2.inst 42477.235294                       # average ReadReq miss latency
system.cpu2.icache.ReadReq_avg_miss_latency::total 42477.235294                       # average ReadReq miss latency
system.cpu2.icache.demand_avg_miss_latency::switch_cpus2.inst 42477.235294                       # average overall miss latency
system.cpu2.icache.demand_avg_miss_latency::total 42477.235294                       # average overall miss latency
system.cpu2.icache.overall_avg_miss_latency::switch_cpus2.inst 42477.235294                       # average overall miss latency
system.cpu2.icache.overall_avg_miss_latency::total 42477.235294                       # average overall miss latency
system.cpu2.icache.blocked_cycles::no_mshrs            0                       # number of cycles access was blocked
system.cpu2.icache.blocked_cycles::no_targets            0                       # number of cycles access was blocked
system.cpu2.icache.blocked::no_mshrs                0                       # number of cycles access was blocked
system.cpu2.icache.blocked::no_targets              0                       # number of cycles access was blocked
system.cpu2.icache.avg_blocked_cycles::no_mshrs          nan                       # average number of cycles each access was blocked
system.cpu2.icache.avg_blocked_cycles::no_targets          nan                       # average number of cycles each access was blocked
system.cpu2.icache.fast_writes                      0                       # number of fast writes performed
system.cpu2.icache.cache_copies                     0                       # number of cache copies performed
system.cpu2.icache.ReadReq_mshr_hits::switch_cpus2.inst            4                       # number of ReadReq MSHR hits
system.cpu2.icache.ReadReq_mshr_hits::total            4                       # number of ReadReq MSHR hits
system.cpu2.icache.demand_mshr_hits::switch_cpus2.inst            4                       # number of demand (read+write) MSHR hits
system.cpu2.icache.demand_mshr_hits::total            4                       # number of demand (read+write) MSHR hits
system.cpu2.icache.overall_mshr_hits::switch_cpus2.inst            4                       # number of overall MSHR hits
system.cpu2.icache.overall_mshr_hits::total            4                       # number of overall MSHR hits
system.cpu2.icache.ReadReq_mshr_misses::switch_cpus2.inst           13                       # number of ReadReq MSHR misses
system.cpu2.icache.ReadReq_mshr_misses::total           13                       # number of ReadReq MSHR misses
system.cpu2.icache.demand_mshr_misses::switch_cpus2.inst           13                       # number of demand (read+write) MSHR misses
system.cpu2.icache.demand_mshr_misses::total           13                       # number of demand (read+write) MSHR misses
system.cpu2.icache.overall_mshr_misses::switch_cpus2.inst           13                       # number of overall MSHR misses
system.cpu2.icache.overall_mshr_misses::total           13                       # number of overall MSHR misses
system.cpu2.icache.ReadReq_mshr_miss_latency::switch_cpus2.inst       547274                       # number of ReadReq MSHR miss cycles
system.cpu2.icache.ReadReq_mshr_miss_latency::total       547274                       # number of ReadReq MSHR miss cycles
system.cpu2.icache.demand_mshr_miss_latency::switch_cpus2.inst       547274                       # number of demand (read+write) MSHR miss cycles
system.cpu2.icache.demand_mshr_miss_latency::total       547274                       # number of demand (read+write) MSHR miss cycles
system.cpu2.icache.overall_mshr_miss_latency::switch_cpus2.inst       547274                       # number of overall MSHR miss cycles
system.cpu2.icache.overall_mshr_miss_latency::total       547274                       # number of overall MSHR miss cycles
system.cpu2.icache.ReadReq_mshr_miss_rate::switch_cpus2.inst     0.000001                       # mshr miss rate for ReadReq accesses
system.cpu2.icache.ReadReq_mshr_miss_rate::total     0.000001                       # mshr miss rate for ReadReq accesses
system.cpu2.icache.demand_mshr_miss_rate::switch_cpus2.inst     0.000001                       # mshr miss rate for demand accesses
system.cpu2.icache.demand_mshr_miss_rate::total     0.000001                       # mshr miss rate for demand accesses
system.cpu2.icache.overall_mshr_miss_rate::switch_cpus2.inst     0.000001                       # mshr miss rate for overall accesses
system.cpu2.icache.overall_mshr_miss_rate::total     0.000001                       # mshr miss rate for overall accesses
system.cpu2.icache.ReadReq_avg_mshr_miss_latency::switch_cpus2.inst        42098                       # average ReadReq mshr miss latency
system.cpu2.icache.ReadReq_avg_mshr_miss_latency::total        42098                       # average ReadReq mshr miss latency
system.cpu2.icache.demand_avg_mshr_miss_latency::switch_cpus2.inst        42098                       # average overall mshr miss latency
system.cpu2.icache.demand_avg_mshr_miss_latency::total        42098                       # average overall mshr miss latency
system.cpu2.icache.overall_avg_mshr_miss_latency::switch_cpus2.inst        42098                       # average overall mshr miss latency
system.cpu2.icache.overall_avg_mshr_miss_latency::total        42098                       # average overall mshr miss latency
system.cpu2.icache.no_allocate_misses               0                       # Number of misses that were no-allocate
system.cpu2.dcache.replacements                 71214                       # number of replacements
system.cpu2.dcache.tagsinuse                      256                       # Cycle average of tags in use
system.cpu2.dcache.total_refs               180517222                       # Total number of references to valid blocks.
system.cpu2.dcache.sampled_refs                 71470                       # Sample count of references to valid blocks.
system.cpu2.dcache.avg_refs               2525.776158                       # Average number of references to valid blocks.
system.cpu2.dcache.warmup_cycle                     0                       # Cycle when the warmup percentage was hit.
system.cpu2.dcache.occ_blocks::switch_cpus2.data   230.430173                       # Average occupied blocks per requestor
system.cpu2.dcache.occ_blocks::cpu2.data    25.569827                       # Average occupied blocks per requestor
system.cpu2.dcache.occ_percent::switch_cpus2.data     0.900118                       # Average percentage of cache occupancy
system.cpu2.dcache.occ_percent::cpu2.data     0.099882                       # Average percentage of cache occupancy
system.cpu2.dcache.occ_percent::total               1                       # Average percentage of cache occupancy
system.cpu2.dcache.ReadReq_hits::switch_cpus2.data     10347851                       # number of ReadReq hits
system.cpu2.dcache.ReadReq_hits::total       10347851                       # number of ReadReq hits
system.cpu2.dcache.WriteReq_hits::switch_cpus2.data      6849164                       # number of WriteReq hits
system.cpu2.dcache.WriteReq_hits::total       6849164                       # number of WriteReq hits
system.cpu2.dcache.LoadLockedReq_hits::switch_cpus2.data        21568                       # number of LoadLockedReq hits
system.cpu2.dcache.LoadLockedReq_hits::total        21568                       # number of LoadLockedReq hits
system.cpu2.dcache.StoreCondReq_hits::switch_cpus2.data        16196                       # number of StoreCondReq hits
system.cpu2.dcache.StoreCondReq_hits::total        16196                       # number of StoreCondReq hits
system.cpu2.dcache.demand_hits::switch_cpus2.data     17197015                       # number of demand (read+write) hits
system.cpu2.dcache.demand_hits::total        17197015                       # number of demand (read+write) hits
system.cpu2.dcache.overall_hits::switch_cpus2.data     17197015                       # number of overall hits
system.cpu2.dcache.overall_hits::total       17197015                       # number of overall hits
system.cpu2.dcache.ReadReq_misses::switch_cpus2.data       149049                       # number of ReadReq misses
system.cpu2.dcache.ReadReq_misses::total       149049                       # number of ReadReq misses
system.cpu2.dcache.demand_misses::switch_cpus2.data       149049                       # number of demand (read+write) misses
system.cpu2.dcache.demand_misses::total        149049                       # number of demand (read+write) misses
system.cpu2.dcache.overall_misses::switch_cpus2.data       149049                       # number of overall misses
system.cpu2.dcache.overall_misses::total       149049                       # number of overall misses
system.cpu2.dcache.ReadReq_miss_latency::switch_cpus2.data   4584298808                       # number of ReadReq miss cycles
system.cpu2.dcache.ReadReq_miss_latency::total   4584298808                       # number of ReadReq miss cycles
system.cpu2.dcache.demand_miss_latency::switch_cpus2.data   4584298808                       # number of demand (read+write) miss cycles
system.cpu2.dcache.demand_miss_latency::total   4584298808                       # number of demand (read+write) miss cycles
system.cpu2.dcache.overall_miss_latency::switch_cpus2.data   4584298808                       # number of overall miss cycles
system.cpu2.dcache.overall_miss_latency::total   4584298808                       # number of overall miss cycles
system.cpu2.dcache.ReadReq_accesses::switch_cpus2.data     10496900                       # number of ReadReq accesses(hits+misses)
system.cpu2.dcache.ReadReq_accesses::total     10496900                       # number of ReadReq accesses(hits+misses)
system.cpu2.dcache.WriteReq_accesses::switch_cpus2.data      6849164                       # number of WriteReq accesses(hits+misses)
system.cpu2.dcache.WriteReq_accesses::total      6849164                       # number of WriteReq accesses(hits+misses)
system.cpu2.dcache.LoadLockedReq_accesses::switch_cpus2.data        21568                       # number of LoadLockedReq accesses(hits+misses)
system.cpu2.dcache.LoadLockedReq_accesses::total        21568                       # number of LoadLockedReq accesses(hits+misses)
system.cpu2.dcache.StoreCondReq_accesses::switch_cpus2.data        16196                       # number of StoreCondReq accesses(hits+misses)
system.cpu2.dcache.StoreCondReq_accesses::total        16196                       # number of StoreCondReq accesses(hits+misses)
system.cpu2.dcache.demand_accesses::switch_cpus2.data     17346064                       # number of demand (read+write) accesses
system.cpu2.dcache.demand_accesses::total     17346064                       # number of demand (read+write) accesses
system.cpu2.dcache.overall_accesses::switch_cpus2.data     17346064                       # number of overall (read+write) accesses
system.cpu2.dcache.overall_accesses::total     17346064                       # number of overall (read+write) accesses
system.cpu2.dcache.ReadReq_miss_rate::switch_cpus2.data     0.014199                       # miss rate for ReadReq accesses
system.cpu2.dcache.ReadReq_miss_rate::total     0.014199                       # miss rate for ReadReq accesses
system.cpu2.dcache.demand_miss_rate::switch_cpus2.data     0.008593                       # miss rate for demand accesses
system.cpu2.dcache.demand_miss_rate::total     0.008593                       # miss rate for demand accesses
system.cpu2.dcache.overall_miss_rate::switch_cpus2.data     0.008593                       # miss rate for overall accesses
system.cpu2.dcache.overall_miss_rate::total     0.008593                       # miss rate for overall accesses
system.cpu2.dcache.ReadReq_avg_miss_latency::switch_cpus2.data 30756.991379                       # average ReadReq miss latency
system.cpu2.dcache.ReadReq_avg_miss_latency::total 30756.991379                       # average ReadReq miss latency
system.cpu2.dcache.demand_avg_miss_latency::switch_cpus2.data 30756.991379                       # average overall miss latency
system.cpu2.dcache.demand_avg_miss_latency::total 30756.991379                       # average overall miss latency
system.cpu2.dcache.overall_avg_miss_latency::switch_cpus2.data 30756.991379                       # average overall miss latency
system.cpu2.dcache.overall_avg_miss_latency::total 30756.991379                       # average overall miss latency
system.cpu2.dcache.blocked_cycles::no_mshrs            0                       # number of cycles access was blocked
system.cpu2.dcache.blocked_cycles::no_targets            0                       # number of cycles access was blocked
system.cpu2.dcache.blocked::no_mshrs                0                       # number of cycles access was blocked
system.cpu2.dcache.blocked::no_targets              0                       # number of cycles access was blocked
system.cpu2.dcache.avg_blocked_cycles::no_mshrs          nan                       # average number of cycles each access was blocked
system.cpu2.dcache.avg_blocked_cycles::no_targets          nan                       # average number of cycles each access was blocked
system.cpu2.dcache.fast_writes                      0                       # number of fast writes performed
system.cpu2.dcache.cache_copies                     0                       # number of cache copies performed
system.cpu2.dcache.writebacks::writebacks        20964                       # number of writebacks
system.cpu2.dcache.writebacks::total            20964                       # number of writebacks
system.cpu2.dcache.ReadReq_mshr_hits::switch_cpus2.data        77835                       # number of ReadReq MSHR hits
system.cpu2.dcache.ReadReq_mshr_hits::total        77835                       # number of ReadReq MSHR hits
system.cpu2.dcache.demand_mshr_hits::switch_cpus2.data        77835                       # number of demand (read+write) MSHR hits
system.cpu2.dcache.demand_mshr_hits::total        77835                       # number of demand (read+write) MSHR hits
system.cpu2.dcache.overall_mshr_hits::switch_cpus2.data        77835                       # number of overall MSHR hits
system.cpu2.dcache.overall_mshr_hits::total        77835                       # number of overall MSHR hits
system.cpu2.dcache.ReadReq_mshr_misses::switch_cpus2.data        71214                       # number of ReadReq MSHR misses
system.cpu2.dcache.ReadReq_mshr_misses::total        71214                       # number of ReadReq MSHR misses
system.cpu2.dcache.demand_mshr_misses::switch_cpus2.data        71214                       # number of demand (read+write) MSHR misses
system.cpu2.dcache.demand_mshr_misses::total        71214                       # number of demand (read+write) MSHR misses
system.cpu2.dcache.overall_mshr_misses::switch_cpus2.data        71214                       # number of overall MSHR misses
system.cpu2.dcache.overall_mshr_misses::total        71214                       # number of overall MSHR misses
system.cpu2.dcache.ReadReq_mshr_miss_latency::switch_cpus2.data   1281752180                       # number of ReadReq MSHR miss cycles
system.cpu2.dcache.ReadReq_mshr_miss_latency::total   1281752180                       # number of ReadReq MSHR miss cycles
system.cpu2.dcache.demand_mshr_miss_latency::switch_cpus2.data   1281752180                       # number of demand (read+write) MSHR miss cycles
system.cpu2.dcache.demand_mshr_miss_latency::total   1281752180                       # number of demand (read+write) MSHR miss cycles
system.cpu2.dcache.overall_mshr_miss_latency::switch_cpus2.data   1281752180                       # number of overall MSHR miss cycles
system.cpu2.dcache.overall_mshr_miss_latency::total   1281752180                       # number of overall MSHR miss cycles
system.cpu2.dcache.ReadReq_mshr_miss_rate::switch_cpus2.data     0.006784                       # mshr miss rate for ReadReq accesses
system.cpu2.dcache.ReadReq_mshr_miss_rate::total     0.006784                       # mshr miss rate for ReadReq accesses
system.cpu2.dcache.demand_mshr_miss_rate::switch_cpus2.data     0.004105                       # mshr miss rate for demand accesses
system.cpu2.dcache.demand_mshr_miss_rate::total     0.004105                       # mshr miss rate for demand accesses
system.cpu2.dcache.overall_mshr_miss_rate::switch_cpus2.data     0.004105                       # mshr miss rate for overall accesses
system.cpu2.dcache.overall_mshr_miss_rate::total     0.004105                       # mshr miss rate for overall accesses
system.cpu2.dcache.ReadReq_avg_mshr_miss_latency::switch_cpus2.data 17998.598309                       # average ReadReq mshr miss latency
system.cpu2.dcache.ReadReq_avg_mshr_miss_latency::total 17998.598309                       # average ReadReq mshr miss latency
system.cpu2.dcache.demand_avg_mshr_miss_latency::switch_cpus2.data 17998.598309                       # average overall mshr miss latency
system.cpu2.dcache.demand_avg_mshr_miss_latency::total 17998.598309                       # average overall mshr miss latency
system.cpu2.dcache.overall_avg_mshr_miss_latency::switch_cpus2.data 17998.598309                       # average overall mshr miss latency
system.cpu2.dcache.overall_avg_mshr_miss_latency::total 17998.598309                       # average overall mshr miss latency
system.cpu2.dcache.no_allocate_misses               0                       # Number of misses that were no-allocate

---------- End Simulation Statistics   ----------
