
---------- Begin Simulation Statistics ----------
sim_seconds                                  0.132170                       # Number of seconds simulated
sim_ticks                                132170420982                       # Number of ticks simulated
final_tick                               697468852809                       # Number of ticks from beginning of simulation (restored from checkpoints and never reset)
sim_freq                                 1000000000000                       # Frequency of simulated ticks
host_inst_rate                                 303445                       # Simulator instruction rate (inst/s)
host_op_rate                                   378984                       # Simulator op (including micro ops) rate (op/s)
host_tick_rate                                2093976                       # Simulator tick rate (ticks/s)
host_mem_usage                               67747716                       # Number of bytes of host memory used
host_seconds                                 63119.37                       # Real time elapsed on the host
sim_insts                                 19153286012                       # Number of instructions simulated
sim_ops                                   23921202617                       # Number of ops (including micro ops) simulated
system.physmem.bytes_read::switch_cpus00.inst         4352                       # Number of bytes read from this memory
system.physmem.bytes_read::switch_cpus00.data      2668800                       # Number of bytes read from this memory
system.physmem.bytes_read::switch_cpus01.inst         4992                       # Number of bytes read from this memory
system.physmem.bytes_read::switch_cpus01.data      2805888                       # Number of bytes read from this memory
system.physmem.bytes_read::switch_cpus02.inst         5376                       # Number of bytes read from this memory
system.physmem.bytes_read::switch_cpus02.data      1799936                       # Number of bytes read from this memory
system.physmem.bytes_read::switch_cpus03.inst         4864                       # Number of bytes read from this memory
system.physmem.bytes_read::switch_cpus03.data      5195520                       # Number of bytes read from this memory
system.physmem.bytes_read::switch_cpus04.inst         4864                       # Number of bytes read from this memory
system.physmem.bytes_read::switch_cpus04.data      4436352                       # Number of bytes read from this memory
system.physmem.bytes_read::switch_cpus05.inst         4864                       # Number of bytes read from this memory
system.physmem.bytes_read::switch_cpus05.data      4423680                       # Number of bytes read from this memory
system.physmem.bytes_read::switch_cpus06.inst         4864                       # Number of bytes read from this memory
system.physmem.bytes_read::switch_cpus06.data      4430976                       # Number of bytes read from this memory
system.physmem.bytes_read::switch_cpus07.inst         4736                       # Number of bytes read from this memory
system.physmem.bytes_read::switch_cpus07.data      5193216                       # Number of bytes read from this memory
system.physmem.bytes_read::switch_cpus08.inst         5120                       # Number of bytes read from this memory
system.physmem.bytes_read::switch_cpus08.data      1800960                       # Number of bytes read from this memory
system.physmem.bytes_read::switch_cpus09.inst         4992                       # Number of bytes read from this memory
system.physmem.bytes_read::switch_cpus09.data      2819200                       # Number of bytes read from this memory
system.physmem.bytes_read::switch_cpus10.inst         4736                       # Number of bytes read from this memory
system.physmem.bytes_read::switch_cpus10.data      5203584                       # Number of bytes read from this memory
system.physmem.bytes_read::switch_cpus11.inst         5376                       # Number of bytes read from this memory
system.physmem.bytes_read::switch_cpus11.data      1304064                       # Number of bytes read from this memory
system.physmem.bytes_read::switch_cpus12.inst         5376                       # Number of bytes read from this memory
system.physmem.bytes_read::switch_cpus12.data      1304192                       # Number of bytes read from this memory
system.physmem.bytes_read::switch_cpus13.inst         4608                       # Number of bytes read from this memory
system.physmem.bytes_read::switch_cpus13.data      5190784                       # Number of bytes read from this memory
system.physmem.bytes_read::switch_cpus14.inst         4992                       # Number of bytes read from this memory
system.physmem.bytes_read::switch_cpus14.data      5198976                       # Number of bytes read from this memory
system.physmem.bytes_read::switch_cpus15.inst         4992                       # Number of bytes read from this memory
system.physmem.bytes_read::switch_cpus15.data      4433536                       # Number of bytes read from this memory
system.physmem.bytes_read::total             58288768                       # Number of bytes read from this memory
system.physmem.bytes_inst_read::switch_cpus00.inst         4352                       # Number of instructions bytes read from this memory
system.physmem.bytes_inst_read::switch_cpus01.inst         4992                       # Number of instructions bytes read from this memory
system.physmem.bytes_inst_read::switch_cpus02.inst         5376                       # Number of instructions bytes read from this memory
system.physmem.bytes_inst_read::switch_cpus03.inst         4864                       # Number of instructions bytes read from this memory
system.physmem.bytes_inst_read::switch_cpus04.inst         4864                       # Number of instructions bytes read from this memory
system.physmem.bytes_inst_read::switch_cpus05.inst         4864                       # Number of instructions bytes read from this memory
system.physmem.bytes_inst_read::switch_cpus06.inst         4864                       # Number of instructions bytes read from this memory
system.physmem.bytes_inst_read::switch_cpus07.inst         4736                       # Number of instructions bytes read from this memory
system.physmem.bytes_inst_read::switch_cpus08.inst         5120                       # Number of instructions bytes read from this memory
system.physmem.bytes_inst_read::switch_cpus09.inst         4992                       # Number of instructions bytes read from this memory
system.physmem.bytes_inst_read::switch_cpus10.inst         4736                       # Number of instructions bytes read from this memory
system.physmem.bytes_inst_read::switch_cpus11.inst         5376                       # Number of instructions bytes read from this memory
system.physmem.bytes_inst_read::switch_cpus12.inst         5376                       # Number of instructions bytes read from this memory
system.physmem.bytes_inst_read::switch_cpus13.inst         4608                       # Number of instructions bytes read from this memory
system.physmem.bytes_inst_read::switch_cpus14.inst         4992                       # Number of instructions bytes read from this memory
system.physmem.bytes_inst_read::switch_cpus15.inst         4992                       # Number of instructions bytes read from this memory
system.physmem.bytes_inst_read::total           79104                       # Number of instructions bytes read from this memory
system.physmem.bytes_written::writebacks     13123200                       # Number of bytes written to this memory
system.physmem.bytes_written::total          13123200                       # Number of bytes written to this memory
system.physmem.num_reads::switch_cpus00.inst           34                       # Number of read requests responded to by this memory
system.physmem.num_reads::switch_cpus00.data        20850                       # Number of read requests responded to by this memory
system.physmem.num_reads::switch_cpus01.inst           39                       # Number of read requests responded to by this memory
system.physmem.num_reads::switch_cpus01.data        21921                       # Number of read requests responded to by this memory
system.physmem.num_reads::switch_cpus02.inst           42                       # Number of read requests responded to by this memory
system.physmem.num_reads::switch_cpus02.data        14062                       # Number of read requests responded to by this memory
system.physmem.num_reads::switch_cpus03.inst           38                       # Number of read requests responded to by this memory
system.physmem.num_reads::switch_cpus03.data        40590                       # Number of read requests responded to by this memory
system.physmem.num_reads::switch_cpus04.inst           38                       # Number of read requests responded to by this memory
system.physmem.num_reads::switch_cpus04.data        34659                       # Number of read requests responded to by this memory
system.physmem.num_reads::switch_cpus05.inst           38                       # Number of read requests responded to by this memory
system.physmem.num_reads::switch_cpus05.data        34560                       # Number of read requests responded to by this memory
system.physmem.num_reads::switch_cpus06.inst           38                       # Number of read requests responded to by this memory
system.physmem.num_reads::switch_cpus06.data        34617                       # Number of read requests responded to by this memory
system.physmem.num_reads::switch_cpus07.inst           37                       # Number of read requests responded to by this memory
system.physmem.num_reads::switch_cpus07.data        40572                       # Number of read requests responded to by this memory
system.physmem.num_reads::switch_cpus08.inst           40                       # Number of read requests responded to by this memory
system.physmem.num_reads::switch_cpus08.data        14070                       # Number of read requests responded to by this memory
system.physmem.num_reads::switch_cpus09.inst           39                       # Number of read requests responded to by this memory
system.physmem.num_reads::switch_cpus09.data        22025                       # Number of read requests responded to by this memory
system.physmem.num_reads::switch_cpus10.inst           37                       # Number of read requests responded to by this memory
system.physmem.num_reads::switch_cpus10.data        40653                       # Number of read requests responded to by this memory
system.physmem.num_reads::switch_cpus11.inst           42                       # Number of read requests responded to by this memory
system.physmem.num_reads::switch_cpus11.data        10188                       # Number of read requests responded to by this memory
system.physmem.num_reads::switch_cpus12.inst           42                       # Number of read requests responded to by this memory
system.physmem.num_reads::switch_cpus12.data        10189                       # Number of read requests responded to by this memory
system.physmem.num_reads::switch_cpus13.inst           36                       # Number of read requests responded to by this memory
system.physmem.num_reads::switch_cpus13.data        40553                       # Number of read requests responded to by this memory
system.physmem.num_reads::switch_cpus14.inst           39                       # Number of read requests responded to by this memory
system.physmem.num_reads::switch_cpus14.data        40617                       # Number of read requests responded to by this memory
system.physmem.num_reads::switch_cpus15.inst           39                       # Number of read requests responded to by this memory
system.physmem.num_reads::switch_cpus15.data        34637                       # Number of read requests responded to by this memory
system.physmem.num_reads::total                455381                       # Number of read requests responded to by this memory
system.physmem.num_writes::writebacks          102525                       # Number of write requests responded to by this memory
system.physmem.num_writes::functional               0                       # Number of write requests responded to by this memory
system.physmem.num_writes::interrupt                0                       # Number of write requests responded to by this memory
system.physmem.num_writes::switch_cpus00.dtb.walker            0                       # Number of write requests responded to by this memory
system.physmem.num_writes::switch_cpus00.itb.walker            0                       # Number of write requests responded to by this memory
system.physmem.num_writes::switch_cpus00.inst            0                       # Number of write requests responded to by this memory
system.physmem.num_writes::switch_cpus00.data            0                       # Number of write requests responded to by this memory
system.physmem.num_writes::switch_cpus01.dtb.walker            0                       # Number of write requests responded to by this memory
system.physmem.num_writes::switch_cpus01.itb.walker            0                       # Number of write requests responded to by this memory
system.physmem.num_writes::switch_cpus01.inst            0                       # Number of write requests responded to by this memory
system.physmem.num_writes::switch_cpus01.data            0                       # Number of write requests responded to by this memory
system.physmem.num_writes::switch_cpus02.dtb.walker            0                       # Number of write requests responded to by this memory
system.physmem.num_writes::switch_cpus02.itb.walker            0                       # Number of write requests responded to by this memory
system.physmem.num_writes::switch_cpus02.inst            0                       # Number of write requests responded to by this memory
system.physmem.num_writes::switch_cpus02.data            0                       # Number of write requests responded to by this memory
system.physmem.num_writes::switch_cpus03.dtb.walker            0                       # Number of write requests responded to by this memory
system.physmem.num_writes::switch_cpus03.itb.walker            0                       # Number of write requests responded to by this memory
system.physmem.num_writes::switch_cpus03.inst            0                       # Number of write requests responded to by this memory
system.physmem.num_writes::switch_cpus03.data            0                       # Number of write requests responded to by this memory
system.physmem.num_writes::switch_cpus04.dtb.walker            0                       # Number of write requests responded to by this memory
system.physmem.num_writes::switch_cpus04.itb.walker            0                       # Number of write requests responded to by this memory
system.physmem.num_writes::switch_cpus04.inst            0                       # Number of write requests responded to by this memory
system.physmem.num_writes::switch_cpus04.data            0                       # Number of write requests responded to by this memory
system.physmem.num_writes::switch_cpus05.dtb.walker            0                       # Number of write requests responded to by this memory
system.physmem.num_writes::switch_cpus05.itb.walker            0                       # Number of write requests responded to by this memory
system.physmem.num_writes::switch_cpus05.inst            0                       # Number of write requests responded to by this memory
system.physmem.num_writes::switch_cpus05.data            0                       # Number of write requests responded to by this memory
system.physmem.num_writes::switch_cpus06.dtb.walker            0                       # Number of write requests responded to by this memory
system.physmem.num_writes::switch_cpus06.itb.walker            0                       # Number of write requests responded to by this memory
system.physmem.num_writes::switch_cpus06.inst            0                       # Number of write requests responded to by this memory
system.physmem.num_writes::switch_cpus06.data            0                       # Number of write requests responded to by this memory
system.physmem.num_writes::switch_cpus07.dtb.walker            0                       # Number of write requests responded to by this memory
system.physmem.num_writes::switch_cpus07.itb.walker            0                       # Number of write requests responded to by this memory
system.physmem.num_writes::switch_cpus07.inst            0                       # Number of write requests responded to by this memory
system.physmem.num_writes::switch_cpus07.data            0                       # Number of write requests responded to by this memory
system.physmem.num_writes::switch_cpus08.dtb.walker            0                       # Number of write requests responded to by this memory
system.physmem.num_writes::switch_cpus08.itb.walker            0                       # Number of write requests responded to by this memory
system.physmem.num_writes::switch_cpus08.inst            0                       # Number of write requests responded to by this memory
system.physmem.num_writes::switch_cpus08.data            0                       # Number of write requests responded to by this memory
system.physmem.num_writes::switch_cpus09.dtb.walker            0                       # Number of write requests responded to by this memory
system.physmem.num_writes::switch_cpus09.itb.walker            0                       # Number of write requests responded to by this memory
system.physmem.num_writes::switch_cpus09.inst            0                       # Number of write requests responded to by this memory
system.physmem.num_writes::switch_cpus09.data            0                       # Number of write requests responded to by this memory
system.physmem.num_writes::switch_cpus10.dtb.walker            0                       # Number of write requests responded to by this memory
system.physmem.num_writes::switch_cpus10.itb.walker            0                       # Number of write requests responded to by this memory
system.physmem.num_writes::switch_cpus10.inst            0                       # Number of write requests responded to by this memory
system.physmem.num_writes::switch_cpus10.data            0                       # Number of write requests responded to by this memory
system.physmem.num_writes::switch_cpus11.dtb.walker            0                       # Number of write requests responded to by this memory
system.physmem.num_writes::switch_cpus11.itb.walker            0                       # Number of write requests responded to by this memory
system.physmem.num_writes::switch_cpus11.inst            0                       # Number of write requests responded to by this memory
system.physmem.num_writes::switch_cpus11.data            0                       # Number of write requests responded to by this memory
system.physmem.num_writes::switch_cpus12.dtb.walker            0                       # Number of write requests responded to by this memory
system.physmem.num_writes::switch_cpus12.itb.walker            0                       # Number of write requests responded to by this memory
system.physmem.num_writes::switch_cpus12.inst            0                       # Number of write requests responded to by this memory
system.physmem.num_writes::switch_cpus12.data            0                       # Number of write requests responded to by this memory
system.physmem.num_writes::switch_cpus13.dtb.walker            0                       # Number of write requests responded to by this memory
system.physmem.num_writes::switch_cpus13.itb.walker            0                       # Number of write requests responded to by this memory
system.physmem.num_writes::switch_cpus13.inst            0                       # Number of write requests responded to by this memory
system.physmem.num_writes::switch_cpus13.data            0                       # Number of write requests responded to by this memory
system.physmem.num_writes::switch_cpus14.dtb.walker            0                       # Number of write requests responded to by this memory
system.physmem.num_writes::switch_cpus14.itb.walker            0                       # Number of write requests responded to by this memory
system.physmem.num_writes::switch_cpus14.inst            0                       # Number of write requests responded to by this memory
system.physmem.num_writes::switch_cpus14.data            0                       # Number of write requests responded to by this memory
system.physmem.num_writes::switch_cpus15.dtb.walker            0                       # Number of write requests responded to by this memory
system.physmem.num_writes::switch_cpus15.itb.walker            0                       # Number of write requests responded to by this memory
system.physmem.num_writes::switch_cpus15.inst            0                       # Number of write requests responded to by this memory
system.physmem.num_writes::switch_cpus15.data            0                       # Number of write requests responded to by this memory
system.physmem.num_writes::cpu00.dtb.walker            0                       # Number of write requests responded to by this memory
system.physmem.num_writes::cpu00.itb.walker            0                       # Number of write requests responded to by this memory
system.physmem.num_writes::cpu00.inst               0                       # Number of write requests responded to by this memory
system.physmem.num_writes::cpu00.data               0                       # Number of write requests responded to by this memory
system.physmem.num_writes::cpu01.dtb.walker            0                       # Number of write requests responded to by this memory
system.physmem.num_writes::cpu01.itb.walker            0                       # Number of write requests responded to by this memory
system.physmem.num_writes::cpu01.inst               0                       # Number of write requests responded to by this memory
system.physmem.num_writes::cpu01.data               0                       # Number of write requests responded to by this memory
system.physmem.num_writes::cpu02.dtb.walker            0                       # Number of write requests responded to by this memory
system.physmem.num_writes::cpu02.itb.walker            0                       # Number of write requests responded to by this memory
system.physmem.num_writes::cpu02.inst               0                       # Number of write requests responded to by this memory
system.physmem.num_writes::cpu02.data               0                       # Number of write requests responded to by this memory
system.physmem.num_writes::cpu03.dtb.walker            0                       # Number of write requests responded to by this memory
system.physmem.num_writes::cpu03.itb.walker            0                       # Number of write requests responded to by this memory
system.physmem.num_writes::cpu03.inst               0                       # Number of write requests responded to by this memory
system.physmem.num_writes::cpu03.data               0                       # Number of write requests responded to by this memory
system.physmem.num_writes::cpu04.dtb.walker            0                       # Number of write requests responded to by this memory
system.physmem.num_writes::cpu04.itb.walker            0                       # Number of write requests responded to by this memory
system.physmem.num_writes::cpu04.inst               0                       # Number of write requests responded to by this memory
system.physmem.num_writes::cpu04.data               0                       # Number of write requests responded to by this memory
system.physmem.num_writes::cpu05.dtb.walker            0                       # Number of write requests responded to by this memory
system.physmem.num_writes::cpu05.itb.walker            0                       # Number of write requests responded to by this memory
system.physmem.num_writes::cpu05.inst               0                       # Number of write requests responded to by this memory
system.physmem.num_writes::cpu05.data               0                       # Number of write requests responded to by this memory
system.physmem.num_writes::cpu06.dtb.walker            0                       # Number of write requests responded to by this memory
system.physmem.num_writes::cpu06.itb.walker            0                       # Number of write requests responded to by this memory
system.physmem.num_writes::cpu06.inst               0                       # Number of write requests responded to by this memory
system.physmem.num_writes::cpu06.data               0                       # Number of write requests responded to by this memory
system.physmem.num_writes::cpu07.dtb.walker            0                       # Number of write requests responded to by this memory
system.physmem.num_writes::cpu07.itb.walker            0                       # Number of write requests responded to by this memory
system.physmem.num_writes::cpu07.inst               0                       # Number of write requests responded to by this memory
system.physmem.num_writes::cpu07.data               0                       # Number of write requests responded to by this memory
system.physmem.num_writes::cpu08.dtb.walker            0                       # Number of write requests responded to by this memory
system.physmem.num_writes::cpu08.itb.walker            0                       # Number of write requests responded to by this memory
system.physmem.num_writes::cpu08.inst               0                       # Number of write requests responded to by this memory
system.physmem.num_writes::cpu08.data               0                       # Number of write requests responded to by this memory
system.physmem.num_writes::cpu09.dtb.walker            0                       # Number of write requests responded to by this memory
system.physmem.num_writes::cpu09.itb.walker            0                       # Number of write requests responded to by this memory
system.physmem.num_writes::cpu09.inst               0                       # Number of write requests responded to by this memory
system.physmem.num_writes::cpu09.data               0                       # Number of write requests responded to by this memory
system.physmem.num_writes::cpu10.dtb.walker            0                       # Number of write requests responded to by this memory
system.physmem.num_writes::cpu10.itb.walker            0                       # Number of write requests responded to by this memory
system.physmem.num_writes::cpu10.inst               0                       # Number of write requests responded to by this memory
system.physmem.num_writes::cpu10.data               0                       # Number of write requests responded to by this memory
system.physmem.num_writes::cpu11.dtb.walker            0                       # Number of write requests responded to by this memory
system.physmem.num_writes::cpu11.itb.walker            0                       # Number of write requests responded to by this memory
system.physmem.num_writes::cpu11.inst               0                       # Number of write requests responded to by this memory
system.physmem.num_writes::cpu11.data               0                       # Number of write requests responded to by this memory
system.physmem.num_writes::cpu12.dtb.walker            0                       # Number of write requests responded to by this memory
system.physmem.num_writes::cpu12.itb.walker            0                       # Number of write requests responded to by this memory
system.physmem.num_writes::cpu12.inst               0                       # Number of write requests responded to by this memory
system.physmem.num_writes::cpu12.data               0                       # Number of write requests responded to by this memory
system.physmem.num_writes::cpu13.dtb.walker            0                       # Number of write requests responded to by this memory
system.physmem.num_writes::cpu13.itb.walker            0                       # Number of write requests responded to by this memory
system.physmem.num_writes::cpu13.inst               0                       # Number of write requests responded to by this memory
system.physmem.num_writes::cpu13.data               0                       # Number of write requests responded to by this memory
system.physmem.num_writes::cpu14.dtb.walker            0                       # Number of write requests responded to by this memory
system.physmem.num_writes::cpu14.itb.walker            0                       # Number of write requests responded to by this memory
system.physmem.num_writes::cpu14.inst               0                       # Number of write requests responded to by this memory
system.physmem.num_writes::cpu14.data               0                       # Number of write requests responded to by this memory
system.physmem.num_writes::cpu15.dtb.walker            0                       # Number of write requests responded to by this memory
system.physmem.num_writes::cpu15.itb.walker            0                       # Number of write requests responded to by this memory
system.physmem.num_writes::cpu15.inst               0                       # Number of write requests responded to by this memory
system.physmem.num_writes::cpu15.data               0                       # Number of write requests responded to by this memory
system.physmem.num_writes::total               102525                       # Number of write requests responded to by this memory
system.physmem.bw_read::switch_cpus00.inst        32927                       # Total read bandwidth from this memory (bytes/s)
system.physmem.bw_read::switch_cpus00.data     20192112                       # Total read bandwidth from this memory (bytes/s)
system.physmem.bw_read::switch_cpus01.inst        37769                       # Total read bandwidth from this memory (bytes/s)
system.physmem.bw_read::switch_cpus01.data     21229319                       # Total read bandwidth from this memory (bytes/s)
system.physmem.bw_read::switch_cpus02.inst        40675                       # Total read bandwidth from this memory (bytes/s)
system.physmem.bw_read::switch_cpus02.data     13618297                       # Total read bandwidth from this memory (bytes/s)
system.physmem.bw_read::switch_cpus03.inst        36801                       # Total read bandwidth from this memory (bytes/s)
system.physmem.bw_read::switch_cpus03.data     39309249                       # Total read bandwidth from this memory (bytes/s)
system.physmem.bw_read::switch_cpus04.inst        36801                       # Total read bandwidth from this memory (bytes/s)
system.physmem.bw_read::switch_cpus04.data     33565392                       # Total read bandwidth from this memory (bytes/s)
system.physmem.bw_read::switch_cpus05.inst        36801                       # Total read bandwidth from this memory (bytes/s)
system.physmem.bw_read::switch_cpus05.data     33469516                       # Total read bandwidth from this memory (bytes/s)
system.physmem.bw_read::switch_cpus06.inst        36801                       # Total read bandwidth from this memory (bytes/s)
system.physmem.bw_read::switch_cpus06.data     33524717                       # Total read bandwidth from this memory (bytes/s)
system.physmem.bw_read::switch_cpus07.inst        35833                       # Total read bandwidth from this memory (bytes/s)
system.physmem.bw_read::switch_cpus07.data     39291817                       # Total read bandwidth from this memory (bytes/s)
system.physmem.bw_read::switch_cpus08.inst        38738                       # Total read bandwidth from this memory (bytes/s)
system.physmem.bw_read::switch_cpus08.data     13626044                       # Total read bandwidth from this memory (bytes/s)
system.physmem.bw_read::switch_cpus09.inst        37769                       # Total read bandwidth from this memory (bytes/s)
system.physmem.bw_read::switch_cpus09.data     21330037                       # Total read bandwidth from this memory (bytes/s)
system.physmem.bw_read::switch_cpus10.inst        35833                       # Total read bandwidth from this memory (bytes/s)
system.physmem.bw_read::switch_cpus10.data     39370261                       # Total read bandwidth from this memory (bytes/s)
system.physmem.bw_read::switch_cpus11.inst        40675                       # Total read bandwidth from this memory (bytes/s)
system.physmem.bw_read::switch_cpus11.data      9866534                       # Total read bandwidth from this memory (bytes/s)
system.physmem.bw_read::switch_cpus12.inst        40675                       # Total read bandwidth from this memory (bytes/s)
system.physmem.bw_read::switch_cpus12.data      9867503                       # Total read bandwidth from this memory (bytes/s)
system.physmem.bw_read::switch_cpus13.inst        34864                       # Total read bandwidth from this memory (bytes/s)
system.physmem.bw_read::switch_cpus13.data     39273417                       # Total read bandwidth from this memory (bytes/s)
system.physmem.bw_read::switch_cpus14.inst        37769                       # Total read bandwidth from this memory (bytes/s)
system.physmem.bw_read::switch_cpus14.data     39335397                       # Total read bandwidth from this memory (bytes/s)
system.physmem.bw_read::switch_cpus15.inst        37769                       # Total read bandwidth from this memory (bytes/s)
system.physmem.bw_read::switch_cpus15.data     33544086                       # Total read bandwidth from this memory (bytes/s)
system.physmem.bw_read::total               441012199                       # Total read bandwidth from this memory (bytes/s)
system.physmem.bw_inst_read::switch_cpus00.inst        32927                       # Instruction read bandwidth from this memory (bytes/s)
system.physmem.bw_inst_read::switch_cpus01.inst        37769                       # Instruction read bandwidth from this memory (bytes/s)
system.physmem.bw_inst_read::switch_cpus02.inst        40675                       # Instruction read bandwidth from this memory (bytes/s)
system.physmem.bw_inst_read::switch_cpus03.inst        36801                       # Instruction read bandwidth from this memory (bytes/s)
system.physmem.bw_inst_read::switch_cpus04.inst        36801                       # Instruction read bandwidth from this memory (bytes/s)
system.physmem.bw_inst_read::switch_cpus05.inst        36801                       # Instruction read bandwidth from this memory (bytes/s)
system.physmem.bw_inst_read::switch_cpus06.inst        36801                       # Instruction read bandwidth from this memory (bytes/s)
system.physmem.bw_inst_read::switch_cpus07.inst        35833                       # Instruction read bandwidth from this memory (bytes/s)
system.physmem.bw_inst_read::switch_cpus08.inst        38738                       # Instruction read bandwidth from this memory (bytes/s)
system.physmem.bw_inst_read::switch_cpus09.inst        37769                       # Instruction read bandwidth from this memory (bytes/s)
system.physmem.bw_inst_read::switch_cpus10.inst        35833                       # Instruction read bandwidth from this memory (bytes/s)
system.physmem.bw_inst_read::switch_cpus11.inst        40675                       # Instruction read bandwidth from this memory (bytes/s)
system.physmem.bw_inst_read::switch_cpus12.inst        40675                       # Instruction read bandwidth from this memory (bytes/s)
system.physmem.bw_inst_read::switch_cpus13.inst        34864                       # Instruction read bandwidth from this memory (bytes/s)
system.physmem.bw_inst_read::switch_cpus14.inst        37769                       # Instruction read bandwidth from this memory (bytes/s)
system.physmem.bw_inst_read::switch_cpus15.inst        37769                       # Instruction read bandwidth from this memory (bytes/s)
system.physmem.bw_inst_read::total             598500                       # Instruction read bandwidth from this memory (bytes/s)
system.physmem.bw_write::writebacks          99289992                       # Write bandwidth from this memory (bytes/s)
system.physmem.bw_write::total               99289992                       # Write bandwidth from this memory (bytes/s)
system.physmem.bw_total::writebacks          99289992                       # Total bandwidth to/from this memory (bytes/s)
system.physmem.bw_total::switch_cpus00.inst        32927                       # Total bandwidth to/from this memory (bytes/s)
system.physmem.bw_total::switch_cpus00.data     20192112                       # Total bandwidth to/from this memory (bytes/s)
system.physmem.bw_total::switch_cpus01.inst        37769                       # Total bandwidth to/from this memory (bytes/s)
system.physmem.bw_total::switch_cpus01.data     21229319                       # Total bandwidth to/from this memory (bytes/s)
system.physmem.bw_total::switch_cpus02.inst        40675                       # Total bandwidth to/from this memory (bytes/s)
system.physmem.bw_total::switch_cpus02.data     13618297                       # Total bandwidth to/from this memory (bytes/s)
system.physmem.bw_total::switch_cpus03.inst        36801                       # Total bandwidth to/from this memory (bytes/s)
system.physmem.bw_total::switch_cpus03.data     39309249                       # Total bandwidth to/from this memory (bytes/s)
system.physmem.bw_total::switch_cpus04.inst        36801                       # Total bandwidth to/from this memory (bytes/s)
system.physmem.bw_total::switch_cpus04.data     33565392                       # Total bandwidth to/from this memory (bytes/s)
system.physmem.bw_total::switch_cpus05.inst        36801                       # Total bandwidth to/from this memory (bytes/s)
system.physmem.bw_total::switch_cpus05.data     33469516                       # Total bandwidth to/from this memory (bytes/s)
system.physmem.bw_total::switch_cpus06.inst        36801                       # Total bandwidth to/from this memory (bytes/s)
system.physmem.bw_total::switch_cpus06.data     33524717                       # Total bandwidth to/from this memory (bytes/s)
system.physmem.bw_total::switch_cpus07.inst        35833                       # Total bandwidth to/from this memory (bytes/s)
system.physmem.bw_total::switch_cpus07.data     39291817                       # Total bandwidth to/from this memory (bytes/s)
system.physmem.bw_total::switch_cpus08.inst        38738                       # Total bandwidth to/from this memory (bytes/s)
system.physmem.bw_total::switch_cpus08.data     13626044                       # Total bandwidth to/from this memory (bytes/s)
system.physmem.bw_total::switch_cpus09.inst        37769                       # Total bandwidth to/from this memory (bytes/s)
system.physmem.bw_total::switch_cpus09.data     21330037                       # Total bandwidth to/from this memory (bytes/s)
system.physmem.bw_total::switch_cpus10.inst        35833                       # Total bandwidth to/from this memory (bytes/s)
system.physmem.bw_total::switch_cpus10.data     39370261                       # Total bandwidth to/from this memory (bytes/s)
system.physmem.bw_total::switch_cpus11.inst        40675                       # Total bandwidth to/from this memory (bytes/s)
system.physmem.bw_total::switch_cpus11.data      9866534                       # Total bandwidth to/from this memory (bytes/s)
system.physmem.bw_total::switch_cpus12.inst        40675                       # Total bandwidth to/from this memory (bytes/s)
system.physmem.bw_total::switch_cpus12.data      9867503                       # Total bandwidth to/from this memory (bytes/s)
system.physmem.bw_total::switch_cpus13.inst        34864                       # Total bandwidth to/from this memory (bytes/s)
system.physmem.bw_total::switch_cpus13.data     39273417                       # Total bandwidth to/from this memory (bytes/s)
system.physmem.bw_total::switch_cpus14.inst        37769                       # Total bandwidth to/from this memory (bytes/s)
system.physmem.bw_total::switch_cpus14.data     39335397                       # Total bandwidth to/from this memory (bytes/s)
system.physmem.bw_total::switch_cpus15.inst        37769                       # Total bandwidth to/from this memory (bytes/s)
system.physmem.bw_total::switch_cpus15.data     33544086                       # Total bandwidth to/from this memory (bytes/s)
system.physmem.bw_total::total              540302191                       # Total bandwidth to/from this memory (bytes/s)
system.switch_cpus00.dtb.inst_hits                  0                       # ITB inst hits
system.switch_cpus00.dtb.inst_misses                0                       # ITB inst misses
system.switch_cpus00.dtb.read_hits                  0                       # DTB read hits
system.switch_cpus00.dtb.read_misses                0                       # DTB read misses
system.switch_cpus00.dtb.write_hits                 0                       # DTB write hits
system.switch_cpus00.dtb.write_misses               0                       # DTB write misses
system.switch_cpus00.dtb.flush_tlb                  0                       # Number of times complete TLB was flushed
system.switch_cpus00.dtb.flush_tlb_mva              0                       # Number of times TLB was flushed by MVA
system.switch_cpus00.dtb.flush_tlb_mva_asid            0                       # Number of times TLB was flushed by MVA & ASID
system.switch_cpus00.dtb.flush_tlb_asid             0                       # Number of times TLB was flushed by ASID
system.switch_cpus00.dtb.flush_entries              0                       # Number of entries that have been flushed from TLB
system.switch_cpus00.dtb.align_faults               0                       # Number of TLB faults due to alignment restrictions
system.switch_cpus00.dtb.prefetch_faults            0                       # Number of TLB faults due to prefetch
system.switch_cpus00.dtb.domain_faults              0                       # Number of TLB faults due to domain restrictions
system.switch_cpus00.dtb.perms_faults               0                       # Number of TLB faults due to permissions restrictions
system.switch_cpus00.dtb.read_accesses              0                       # DTB read accesses
system.switch_cpus00.dtb.write_accesses             0                       # DTB write accesses
system.switch_cpus00.dtb.inst_accesses              0                       # ITB inst accesses
system.switch_cpus00.dtb.hits                       0                       # DTB hits
system.switch_cpus00.dtb.misses                     0                       # DTB misses
system.switch_cpus00.dtb.accesses                   0                       # DTB accesses
system.switch_cpus00.itb.inst_hits                  0                       # ITB inst hits
system.switch_cpus00.itb.inst_misses                0                       # ITB inst misses
system.switch_cpus00.itb.read_hits                  0                       # DTB read hits
system.switch_cpus00.itb.read_misses                0                       # DTB read misses
system.switch_cpus00.itb.write_hits                 0                       # DTB write hits
system.switch_cpus00.itb.write_misses               0                       # DTB write misses
system.switch_cpus00.itb.flush_tlb                  0                       # Number of times complete TLB was flushed
system.switch_cpus00.itb.flush_tlb_mva              0                       # Number of times TLB was flushed by MVA
system.switch_cpus00.itb.flush_tlb_mva_asid            0                       # Number of times TLB was flushed by MVA & ASID
system.switch_cpus00.itb.flush_tlb_asid             0                       # Number of times TLB was flushed by ASID
system.switch_cpus00.itb.flush_entries              0                       # Number of entries that have been flushed from TLB
system.switch_cpus00.itb.align_faults               0                       # Number of TLB faults due to alignment restrictions
system.switch_cpus00.itb.prefetch_faults            0                       # Number of TLB faults due to prefetch
system.switch_cpus00.itb.domain_faults              0                       # Number of TLB faults due to domain restrictions
system.switch_cpus00.itb.perms_faults               0                       # Number of TLB faults due to permissions restrictions
system.switch_cpus00.itb.read_accesses              0                       # DTB read accesses
system.switch_cpus00.itb.write_accesses             0                       # DTB write accesses
system.switch_cpus00.itb.inst_accesses              0                       # ITB inst accesses
system.switch_cpus00.itb.hits                       0                       # DTB hits
system.switch_cpus00.itb.misses                     0                       # DTB misses
system.switch_cpus00.itb.accesses                   0                       # DTB accesses
system.cpu00.workload.num_syscalls                 29                       # Number of system calls
system.switch_cpus00.numCycles              316955447                       # number of cpu cycles simulated
system.switch_cpus00.numWorkItemsStarted            0                       # number of work items this cpu started
system.switch_cpus00.numWorkItemsCompleted            0                       # number of work items this cpu completed
system.switch_cpus00.BPredUnit.lookups       21815014                       # Number of BP lookups
system.switch_cpus00.BPredUnit.condPredicted     19472434                       # Number of conditional branches predicted
system.switch_cpus00.BPredUnit.condIncorrect      1739740                       # Number of conditional branches incorrect
system.switch_cpus00.BPredUnit.BTBLookups     14502811                       # Number of BTB lookups
system.switch_cpus00.BPredUnit.BTBHits       14215420                       # Number of BTB hits
system.switch_cpus00.BPredUnit.BTBCorrect            0                       # Number of correct BTB predictions (this stat may not work properly.
system.switch_cpus00.BPredUnit.usedRAS        1310661                       # Number of times the RAS was used to get a target.
system.switch_cpus00.BPredUnit.RASInCorrect        52125                       # Number of incorrect RAS predictions.
system.switch_cpus00.fetch.icacheStallCycles    230385086                       # Number of cycles fetch is stalled on an Icache miss
system.switch_cpus00.fetch.Insts            123947131                       # Number of instructions fetch has processed
system.switch_cpus00.fetch.Branches          21815014                       # Number of branches that fetch encountered
system.switch_cpus00.fetch.predictedBranches     15526081                       # Number of branches that fetch has predicted taken
system.switch_cpus00.fetch.Cycles            27625680                       # Number of cycles fetch has run and was not squashing or blocked
system.switch_cpus00.fetch.SquashCycles       5723596                       # Number of cycles fetch has spent squashing
system.switch_cpus00.fetch.BlockedCycles      9539755                       # Number of cycles fetch has spent blocked
system.switch_cpus00.fetch.MiscStallCycles            1                       # Number of cycles fetch has spent waiting on interrupts, or bad addresses, or out of MSHRs
system.switch_cpus00.fetch.PendingTrapStallCycles           29                       # Number of stall cycles due to pending traps
system.switch_cpus00.fetch.CacheLines        13943748                       # Number of cache lines fetched
system.switch_cpus00.fetch.IcacheSquashes      1707535                       # Number of outstanding Icache misses that were squashed
system.switch_cpus00.fetch.rateDist::samples    271524618                       # Number of instructions fetched each cycle (Total)
system.switch_cpus00.fetch.rateDist::mean     0.511498                       # Number of instructions fetched each cycle (Total)
system.switch_cpus00.fetch.rateDist::stdev     1.747689                       # Number of instructions fetched each cycle (Total)
system.switch_cpus00.fetch.rateDist::underflows            0      0.00%      0.00% # Number of instructions fetched each cycle (Total)
system.switch_cpus00.fetch.rateDist::0      243898938     89.83%     89.83% # Number of instructions fetched each cycle (Total)
system.switch_cpus00.fetch.rateDist::1        4205397      1.55%     91.37% # Number of instructions fetched each cycle (Total)
system.switch_cpus00.fetch.rateDist::2        2134055      0.79%     92.16% # Number of instructions fetched each cycle (Total)
system.switch_cpus00.fetch.rateDist::3        4160498      1.53%     93.69% # Number of instructions fetched each cycle (Total)
system.switch_cpus00.fetch.rateDist::4        1335737      0.49%     94.18% # Number of instructions fetched each cycle (Total)
system.switch_cpus00.fetch.rateDist::5        3842775      1.42%     95.60% # Number of instructions fetched each cycle (Total)
system.switch_cpus00.fetch.rateDist::6         609021      0.22%     95.82% # Number of instructions fetched each cycle (Total)
system.switch_cpus00.fetch.rateDist::7         987198      0.36%     96.19% # Number of instructions fetched each cycle (Total)
system.switch_cpus00.fetch.rateDist::8       10350999      3.81%    100.00% # Number of instructions fetched each cycle (Total)
system.switch_cpus00.fetch.rateDist::overflows            0      0.00%    100.00% # Number of instructions fetched each cycle (Total)
system.switch_cpus00.fetch.rateDist::min_value            0                       # Number of instructions fetched each cycle (Total)
system.switch_cpus00.fetch.rateDist::max_value            8                       # Number of instructions fetched each cycle (Total)
system.switch_cpus00.fetch.rateDist::total    271524618                       # Number of instructions fetched each cycle (Total)
system.switch_cpus00.fetch.branchRate        0.068827                       # Number of branch fetches per cycle
system.switch_cpus00.fetch.rate              0.391055                       # Number of inst fetches per cycle
system.switch_cpus00.decode.IdleCycles      228374702                       # Number of cycles decode is idle
system.switch_cpus00.decode.BlockedCycles     11603168                       # Number of cycles decode is blocked
system.switch_cpus00.decode.RunCycles        27570713                       # Number of cycles decode is running
system.switch_cpus00.decode.UnblockCycles        22338                       # Number of cycles decode is unblocking
system.switch_cpus00.decode.SquashCycles      3953693                       # Number of cycles decode is squashing
system.switch_cpus00.decode.BranchResolved      2064533                       # Number of times decode resolved a branch
system.switch_cpus00.decode.BranchMispred        20374                       # Number of times decode detected a branch misprediction
system.switch_cpus00.decode.DecodedInsts    138665723                       # Number of instructions handled by decode
system.switch_cpus00.decode.SquashedInsts        38348                       # Number of squashed instructions handled by decode
system.switch_cpus00.rename.SquashCycles      3953693                       # Number of cycles rename is squashing
system.switch_cpus00.rename.IdleCycles      228605881                       # Number of cycles rename is idle
system.switch_cpus00.rename.BlockCycles       7504480                       # Number of cycles rename is blocking
system.switch_cpus00.rename.serializeStallCycles      3363757                       # count of cycles rename stalled for serializing inst
system.switch_cpus00.rename.RunCycles        27339502                       # Number of cycles rename is running
system.switch_cpus00.rename.UnblockCycles       757301                       # Number of cycles rename is unblocking
system.switch_cpus00.rename.RenamedInsts    138460702                       # Number of instructions processed by rename
system.switch_cpus00.rename.ROBFullEvents          250                       # Number of times rename has blocked due to ROB full
system.switch_cpus00.rename.IQFullEvents       107036                       # Number of times rename has blocked due to IQ full
system.switch_cpus00.rename.LSQFullEvents       569483                       # Number of times rename has blocked due to LSQ full
system.switch_cpus00.rename.RenamedOperands    181485273                       # Number of destination operands rename has renamed
system.switch_cpus00.rename.RenameLookups    627598444                       # Number of register rename lookups that rename has made
system.switch_cpus00.rename.int_rename_lookups    627598444                       # Number of integer rename lookups
system.switch_cpus00.rename.CommittedMaps    147034306                       # Number of HB maps that are committed
system.switch_cpus00.rename.UndoneMaps       34450941                       # Number of HB maps that are undone due to squashing
system.switch_cpus00.rename.serializingInsts        18595                       # count of serializing insts renamed
system.switch_cpus00.rename.tempSerializingInsts         9406                       # count of temporary serializing insts renamed
system.switch_cpus00.rename.skidInsts         1798017                       # count of insts added to the skid buffer
system.switch_cpus00.memDep0.insertedLoads     24952809                       # Number of loads inserted to the mem dependence unit.
system.switch_cpus00.memDep0.insertedStores      4066456                       # Number of stores inserted to the mem dependence unit.
system.switch_cpus00.memDep0.conflictingLoads        26434                       # Number of conflicting loads.
system.switch_cpus00.memDep0.conflictingStores       927242                       # Number of conflicting stores.
system.switch_cpus00.iq.iqInstsAdded        137748169                       # Number of instructions added to the IQ (excludes non-spec)
system.switch_cpus00.iq.iqNonSpecInstsAdded        18659                       # Number of non-speculative instructions added to the IQ
system.switch_cpus00.iq.iqInstsIssued       128941139                       # Number of instructions issued
system.switch_cpus00.iq.iqSquashedInstsIssued        82924                       # Number of squashed instructions issued
system.switch_cpus00.iq.iqSquashedInstsExamined     24979799                       # Number of squashed instructions iterated over during squash; mainly for profiling
system.switch_cpus00.iq.iqSquashedOperandsExamined     51161142                       # Number of squashed operands that are examined and possibly removed from graph
system.switch_cpus00.iq.iqSquashedNonSpecRemoved          125                       # Number of squashed non-spec instructions that were removed
system.switch_cpus00.iq.issued_per_cycle::samples    271524618                       # Number of insts issued each cycle
system.switch_cpus00.iq.issued_per_cycle::mean     0.474878                       # Number of insts issued each cycle
system.switch_cpus00.iq.issued_per_cycle::stdev     1.088726                       # Number of insts issued each cycle
system.switch_cpus00.iq.issued_per_cycle::underflows            0      0.00%      0.00% # Number of insts issued each cycle
system.switch_cpus00.iq.issued_per_cycle::0    215031889     79.19%     79.19% # Number of insts issued each cycle
system.switch_cpus00.iq.issued_per_cycle::1     17742871      6.53%     85.73% # Number of insts issued each cycle
system.switch_cpus00.iq.issued_per_cycle::2     18938323      6.97%     92.70% # Number of insts issued each cycle
system.switch_cpus00.iq.issued_per_cycle::3     10958833      4.04%     96.74% # Number of insts issued each cycle
system.switch_cpus00.iq.issued_per_cycle::4      5678370      2.09%     98.83% # Number of insts issued each cycle
system.switch_cpus00.iq.issued_per_cycle::5      1420169      0.52%     99.35% # Number of insts issued each cycle
system.switch_cpus00.iq.issued_per_cycle::6      1681610      0.62%     99.97% # Number of insts issued each cycle
system.switch_cpus00.iq.issued_per_cycle::7        39286      0.01%     99.99% # Number of insts issued each cycle
system.switch_cpus00.iq.issued_per_cycle::8        33267      0.01%    100.00% # Number of insts issued each cycle
system.switch_cpus00.iq.issued_per_cycle::overflows            0      0.00%    100.00% # Number of insts issued each cycle
system.switch_cpus00.iq.issued_per_cycle::min_value            0                       # Number of insts issued each cycle
system.switch_cpus00.iq.issued_per_cycle::max_value            8                       # Number of insts issued each cycle
system.switch_cpus00.iq.issued_per_cycle::total    271524618                       # Number of insts issued each cycle
system.switch_cpus00.iq.fu_full::No_OpClass            0      0.00%      0.00% # attempts to use FU when none available
system.switch_cpus00.iq.fu_full::IntAlu        215454     57.15%     57.15% # attempts to use FU when none available
system.switch_cpus00.iq.fu_full::IntMult            0      0.00%     57.15% # attempts to use FU when none available
system.switch_cpus00.iq.fu_full::IntDiv             0      0.00%     57.15% # attempts to use FU when none available
system.switch_cpus00.iq.fu_full::FloatAdd            0      0.00%     57.15% # attempts to use FU when none available
system.switch_cpus00.iq.fu_full::FloatCmp            0      0.00%     57.15% # attempts to use FU when none available
system.switch_cpus00.iq.fu_full::FloatCvt            0      0.00%     57.15% # attempts to use FU when none available
system.switch_cpus00.iq.fu_full::FloatMult            0      0.00%     57.15% # attempts to use FU when none available
system.switch_cpus00.iq.fu_full::FloatDiv            0      0.00%     57.15% # attempts to use FU when none available
system.switch_cpus00.iq.fu_full::FloatSqrt            0      0.00%     57.15% # attempts to use FU when none available
system.switch_cpus00.iq.fu_full::SimdAdd            0      0.00%     57.15% # attempts to use FU when none available
system.switch_cpus00.iq.fu_full::SimdAddAcc            0      0.00%     57.15% # attempts to use FU when none available
system.switch_cpus00.iq.fu_full::SimdAlu            0      0.00%     57.15% # attempts to use FU when none available
system.switch_cpus00.iq.fu_full::SimdCmp            0      0.00%     57.15% # attempts to use FU when none available
system.switch_cpus00.iq.fu_full::SimdCvt            0      0.00%     57.15% # attempts to use FU when none available
system.switch_cpus00.iq.fu_full::SimdMisc            0      0.00%     57.15% # attempts to use FU when none available
system.switch_cpus00.iq.fu_full::SimdMult            0      0.00%     57.15% # attempts to use FU when none available
system.switch_cpus00.iq.fu_full::SimdMultAcc            0      0.00%     57.15% # attempts to use FU when none available
system.switch_cpus00.iq.fu_full::SimdShift            0      0.00%     57.15% # attempts to use FU when none available
system.switch_cpus00.iq.fu_full::SimdShiftAcc            0      0.00%     57.15% # attempts to use FU when none available
system.switch_cpus00.iq.fu_full::SimdSqrt            0      0.00%     57.15% # attempts to use FU when none available
system.switch_cpus00.iq.fu_full::SimdFloatAdd            0      0.00%     57.15% # attempts to use FU when none available
system.switch_cpus00.iq.fu_full::SimdFloatAlu            0      0.00%     57.15% # attempts to use FU when none available
system.switch_cpus00.iq.fu_full::SimdFloatCmp            0      0.00%     57.15% # attempts to use FU when none available
system.switch_cpus00.iq.fu_full::SimdFloatCvt            0      0.00%     57.15% # attempts to use FU when none available
system.switch_cpus00.iq.fu_full::SimdFloatDiv            0      0.00%     57.15% # attempts to use FU when none available
system.switch_cpus00.iq.fu_full::SimdFloatMisc            0      0.00%     57.15% # attempts to use FU when none available
system.switch_cpus00.iq.fu_full::SimdFloatMult            0      0.00%     57.15% # attempts to use FU when none available
system.switch_cpus00.iq.fu_full::SimdFloatMultAcc            0      0.00%     57.15% # attempts to use FU when none available
system.switch_cpus00.iq.fu_full::SimdFloatSqrt            0      0.00%     57.15% # attempts to use FU when none available
system.switch_cpus00.iq.fu_full::MemRead        88607     23.51%     80.66% # attempts to use FU when none available
system.switch_cpus00.iq.fu_full::MemWrite        72904     19.34%    100.00% # attempts to use FU when none available
system.switch_cpus00.iq.fu_full::IprAccess            0      0.00%    100.00% # attempts to use FU when none available
system.switch_cpus00.iq.fu_full::InstPrefetch            0      0.00%    100.00% # attempts to use FU when none available
system.switch_cpus00.iq.FU_type_0::No_OpClass            0      0.00%      0.00% # Type of FU issued
system.switch_cpus00.iq.FU_type_0::IntAlu    101122832     78.43%     78.43% # Type of FU issued
system.switch_cpus00.iq.FU_type_0::IntMult      1013053      0.79%     79.21% # Type of FU issued
system.switch_cpus00.iq.FU_type_0::IntDiv            0      0.00%     79.21% # Type of FU issued
system.switch_cpus00.iq.FU_type_0::FloatAdd            0      0.00%     79.21% # Type of FU issued
system.switch_cpus00.iq.FU_type_0::FloatCmp            0      0.00%     79.21% # Type of FU issued
system.switch_cpus00.iq.FU_type_0::FloatCvt            0      0.00%     79.21% # Type of FU issued
system.switch_cpus00.iq.FU_type_0::FloatMult            0      0.00%     79.21% # Type of FU issued
system.switch_cpus00.iq.FU_type_0::FloatDiv            0      0.00%     79.21% # Type of FU issued
system.switch_cpus00.iq.FU_type_0::FloatSqrt            0      0.00%     79.21% # Type of FU issued
system.switch_cpus00.iq.FU_type_0::SimdAdd            0      0.00%     79.21% # Type of FU issued
system.switch_cpus00.iq.FU_type_0::SimdAddAcc            0      0.00%     79.21% # Type of FU issued
system.switch_cpus00.iq.FU_type_0::SimdAlu            0      0.00%     79.21% # Type of FU issued
system.switch_cpus00.iq.FU_type_0::SimdCmp            0      0.00%     79.21% # Type of FU issued
system.switch_cpus00.iq.FU_type_0::SimdCvt            0      0.00%     79.21% # Type of FU issued
system.switch_cpus00.iq.FU_type_0::SimdMisc            0      0.00%     79.21% # Type of FU issued
system.switch_cpus00.iq.FU_type_0::SimdMult            0      0.00%     79.21% # Type of FU issued
system.switch_cpus00.iq.FU_type_0::SimdMultAcc            0      0.00%     79.21% # Type of FU issued
system.switch_cpus00.iq.FU_type_0::SimdShift            0      0.00%     79.21% # Type of FU issued
system.switch_cpus00.iq.FU_type_0::SimdShiftAcc            0      0.00%     79.21% # Type of FU issued
system.switch_cpus00.iq.FU_type_0::SimdSqrt            0      0.00%     79.21% # Type of FU issued
system.switch_cpus00.iq.FU_type_0::SimdFloatAdd            0      0.00%     79.21% # Type of FU issued
system.switch_cpus00.iq.FU_type_0::SimdFloatAlu            0      0.00%     79.21% # Type of FU issued
system.switch_cpus00.iq.FU_type_0::SimdFloatCmp            0      0.00%     79.21% # Type of FU issued
system.switch_cpus00.iq.FU_type_0::SimdFloatCvt            0      0.00%     79.21% # Type of FU issued
system.switch_cpus00.iq.FU_type_0::SimdFloatDiv            0      0.00%     79.21% # Type of FU issued
system.switch_cpus00.iq.FU_type_0::SimdFloatMisc         9190      0.01%     79.22% # Type of FU issued
system.switch_cpus00.iq.FU_type_0::SimdFloatMult            0      0.00%     79.22% # Type of FU issued
system.switch_cpus00.iq.FU_type_0::SimdFloatMultAcc            0      0.00%     79.22% # Type of FU issued
system.switch_cpus00.iq.FU_type_0::SimdFloatSqrt            0      0.00%     79.22% # Type of FU issued
system.switch_cpus00.iq.FU_type_0::MemRead     22763900     17.65%     96.87% # Type of FU issued
system.switch_cpus00.iq.FU_type_0::MemWrite      4032164      3.13%    100.00% # Type of FU issued
system.switch_cpus00.iq.FU_type_0::IprAccess            0      0.00%    100.00% # Type of FU issued
system.switch_cpus00.iq.FU_type_0::InstPrefetch            0      0.00%    100.00% # Type of FU issued
system.switch_cpus00.iq.FU_type_0::total    128941139                       # Type of FU issued
system.switch_cpus00.iq.rate                 0.406812                       # Inst issue rate
system.switch_cpus00.iq.fu_busy_cnt            376965                       # FU busy when requested
system.switch_cpus00.iq.fu_busy_rate         0.002924                       # FU busy rate (busy events/executed inst)
system.switch_cpus00.iq.int_inst_queue_reads    529866784                       # Number of integer instruction queue reads
system.switch_cpus00.iq.int_inst_queue_writes    162746962                       # Number of integer instruction queue writes
system.switch_cpus00.iq.int_inst_queue_wakeup_accesses    125659350                       # Number of integer instruction queue wakeup accesses
system.switch_cpus00.iq.fp_inst_queue_reads            0                       # Number of floating instruction queue reads
system.switch_cpus00.iq.fp_inst_queue_writes            0                       # Number of floating instruction queue writes
system.switch_cpus00.iq.fp_inst_queue_wakeup_accesses            0                       # Number of floating instruction queue wakeup accesses
system.switch_cpus00.iq.int_alu_accesses    129318104                       # Number of integer alu accesses
system.switch_cpus00.iq.fp_alu_accesses             0                       # Number of floating point alu accesses
system.switch_cpus00.iew.lsq.thread0.forwLoads       102126                       # Number of loads that had data forwarded from stores
system.switch_cpus00.iew.lsq.thread0.invAddrLoads            0                       # Number of loads ignored due to an invalid address
system.switch_cpus00.iew.lsq.thread0.squashedLoads      5114743                       # Number of loads squashed
system.switch_cpus00.iew.lsq.thread0.ignoredResponses          132                       # Number of memory responses ignored because the instruction is squashed
system.switch_cpus00.iew.lsq.thread0.memOrderViolation          340                       # Number of memory ordering violations
system.switch_cpus00.iew.lsq.thread0.squashedStores       100511                       # Number of stores squashed
system.switch_cpus00.iew.lsq.thread0.invAddrSwpfs            0                       # Number of software prefetches ignored due to an invalid address
system.switch_cpus00.iew.lsq.thread0.blockedLoads            0                       # Number of blocked loads due to partial load-store forwarding
system.switch_cpus00.iew.lsq.thread0.rescheduledLoads            0                       # Number of loads that were rescheduled
system.switch_cpus00.iew.lsq.thread0.cacheBlocked            0                       # Number of times an access to memory failed due to the cache being blocked
system.switch_cpus00.iew.iewIdleCycles              0                       # Number of cycles IEW is idle
system.switch_cpus00.iew.iewSquashCycles      3953693                       # Number of cycles IEW is squashing
system.switch_cpus00.iew.iewBlockCycles       6672587                       # Number of cycles IEW is blocking
system.switch_cpus00.iew.iewUnblockCycles        92532                       # Number of cycles IEW is unblocking
system.switch_cpus00.iew.iewDispatchedInsts    137766930                       # Number of instructions dispatched to IQ
system.switch_cpus00.iew.iewDispSquashedInsts        18308                       # Number of squashed instructions skipped by dispatch
system.switch_cpus00.iew.iewDispLoadInsts     24952809                       # Number of dispatched load instructions
system.switch_cpus00.iew.iewDispStoreInsts      4066456                       # Number of dispatched store instructions
system.switch_cpus00.iew.iewDispNonSpecInsts         9401                       # Number of dispatched non-speculative instructions
system.switch_cpus00.iew.iewIQFullEvents        46375                       # Number of times the IQ has become full, causing a stall
system.switch_cpus00.iew.iewLSQFullEvents         2695                       # Number of times the LSQ has become full, causing a stall
system.switch_cpus00.iew.memOrderViolationEvents          340                       # Number of memory order violations
system.switch_cpus00.iew.predictedTakenIncorrect      1173094                       # Number of branches that were predicted taken incorrectly
system.switch_cpus00.iew.predictedNotTakenIncorrect       671527                       # Number of branches that were predicted not taken incorrectly
system.switch_cpus00.iew.branchMispredicts      1844621                       # Number of branch mispredicts detected at execute
system.switch_cpus00.iew.iewExecutedInsts    127309204                       # Number of executed instructions
system.switch_cpus00.iew.iewExecLoadInsts     22442414                       # Number of load instructions executed
system.switch_cpus00.iew.iewExecSquashedInsts      1631934                       # Number of squashed instructions skipped in execute
system.switch_cpus00.iew.exec_swp                   0                       # number of swp insts executed
system.switch_cpus00.iew.exec_nop                 102                       # number of nop insts executed
system.switch_cpus00.iew.exec_refs           26474387                       # number of memory reference insts executed
system.switch_cpus00.iew.exec_branches       19341968                       # Number of branches executed
system.switch_cpus00.iew.exec_stores          4031973                       # Number of stores executed
system.switch_cpus00.iew.exec_rate           0.401663                       # Inst execution rate
system.switch_cpus00.iew.wb_sent            125688212                       # cumulative count of insts sent to commit
system.switch_cpus00.iew.wb_count           125659350                       # cumulative count of insts written-back
system.switch_cpus00.iew.wb_producers        76024415                       # num instructions producing a value
system.switch_cpus00.iew.wb_consumers       165717866                       # num instructions consuming a value
system.switch_cpus00.iew.wb_penalized               0                       # number of instrctions required to write to 'other' IQ
system.switch_cpus00.iew.wb_rate             0.396457                       # insts written-back per cycle
system.switch_cpus00.iew.wb_fanout           0.458758                       # average fanout of values written-back
system.switch_cpus00.iew.wb_penalized_rate            0                       # fraction of instructions written-back that wrote to 'other' IQ
system.switch_cpus00.commit.commitCommittedInsts    100000000                       # The number of committed instructions
system.switch_cpus00.commit.commitCommittedOps    112615979                       # The number of committed instructions
system.switch_cpus00.commit.commitSquashedInsts     25156502                       # The number of squashed insts skipped by commit
system.switch_cpus00.commit.commitNonSpecStalls        18534                       # The number of times commit has been forced to stall to communicate backwards
system.switch_cpus00.commit.branchMispredicts      1728886                       # The number of times a branch was mispredicted
system.switch_cpus00.commit.committed_per_cycle::samples    267570925                       # Number of insts commited each cycle
system.switch_cpus00.commit.committed_per_cycle::mean     0.420883                       # Number of insts commited each cycle
system.switch_cpus00.commit.committed_per_cycle::stdev     1.287617                       # Number of insts commited each cycle
system.switch_cpus00.commit.committed_per_cycle::underflows            0      0.00%      0.00% # Number of insts commited each cycle
system.switch_cpus00.commit.committed_per_cycle::0    225615659     84.32%     84.32% # Number of insts commited each cycle
system.switch_cpus00.commit.committed_per_cycle::1     16500576      6.17%     90.49% # Number of insts commited each cycle
system.switch_cpus00.commit.committed_per_cycle::2     10566576      3.95%     94.44% # Number of insts commited each cycle
system.switch_cpus00.commit.committed_per_cycle::3      3351232      1.25%     95.69% # Number of insts commited each cycle
system.switch_cpus00.commit.committed_per_cycle::4      5530477      2.07%     97.76% # Number of insts commited each cycle
system.switch_cpus00.commit.committed_per_cycle::5      1081797      0.40%     98.16% # Number of insts commited each cycle
system.switch_cpus00.commit.committed_per_cycle::6       685876      0.26%     98.42% # Number of insts commited each cycle
system.switch_cpus00.commit.committed_per_cycle::7       627450      0.23%     98.65% # Number of insts commited each cycle
system.switch_cpus00.commit.committed_per_cycle::8      3611282      1.35%    100.00% # Number of insts commited each cycle
system.switch_cpus00.commit.committed_per_cycle::overflows            0      0.00%    100.00% # Number of insts commited each cycle
system.switch_cpus00.commit.committed_per_cycle::min_value            0                       # Number of insts commited each cycle
system.switch_cpus00.commit.committed_per_cycle::max_value            8                       # Number of insts commited each cycle
system.switch_cpus00.commit.committed_per_cycle::total    267570925                       # Number of insts commited each cycle
system.switch_cpus00.commit.committedInsts    100000000                       # Number of instructions committed
system.switch_cpus00.commit.committedOps    112615979                       # Number of ops (including micro ops) committed
system.switch_cpus00.commit.swp_count               0                       # Number of s/w prefetches committed
system.switch_cpus00.commit.refs             23804005                       # Number of memory references committed
system.switch_cpus00.commit.loads            19838060                       # Number of loads committed
system.switch_cpus00.commit.membars              9247                       # Number of memory barriers committed
system.switch_cpus00.commit.branches         17267929                       # Number of branches committed
system.switch_cpus00.commit.fp_insts                0                       # Number of committed floating point instructions.
system.switch_cpus00.commit.int_insts        98436174                       # Number of committed integer instructions.
system.switch_cpus00.commit.function_calls      1412128                       # Number of function calls committed.
system.switch_cpus00.commit.bw_lim_events      3611282                       # number cycles where commit BW limit reached
system.switch_cpus00.commit.bw_limited              0                       # number of insts not committed due to BW limits
system.switch_cpus00.rob.rob_reads          401731747                       # The number of ROB reads
system.switch_cpus00.rob.rob_writes         279501842                       # The number of ROB writes
system.switch_cpus00.timesIdled               5143951                       # Number of times that the entire CPU went into an idle state and unscheduled itself
system.switch_cpus00.idleCycles              45430829                       # Total number of cycles that the CPU has spent unscheduled due to idling
system.switch_cpus00.committedInsts         100000000                       # Number of Instructions Simulated
system.switch_cpus00.committedOps           112615979                       # Number of Ops (including micro ops) Simulated
system.switch_cpus00.committedInsts_total    100000000                       # Number of Instructions Simulated
system.switch_cpus00.cpi                     3.169554                       # CPI: Cycles Per Instruction
system.switch_cpus00.cpi_total               3.169554                       # CPI: Total CPI of All Threads
system.switch_cpus00.ipc                     0.315502                       # IPC: Instructions Per Cycle
system.switch_cpus00.ipc_total               0.315502                       # IPC: Total IPC of All Threads
system.switch_cpus00.int_regfile_reads      591715051                       # number of integer regfile reads
system.switch_cpus00.int_regfile_writes     163746982                       # number of integer regfile writes
system.switch_cpus00.misc_regfile_reads     147224368                       # number of misc regfile reads
system.switch_cpus00.misc_regfile_writes        18516                       # number of misc regfile writes
system.switch_cpus01.dtb.inst_hits                  0                       # ITB inst hits
system.switch_cpus01.dtb.inst_misses                0                       # ITB inst misses
system.switch_cpus01.dtb.read_hits                  0                       # DTB read hits
system.switch_cpus01.dtb.read_misses                0                       # DTB read misses
system.switch_cpus01.dtb.write_hits                 0                       # DTB write hits
system.switch_cpus01.dtb.write_misses               0                       # DTB write misses
system.switch_cpus01.dtb.flush_tlb                  0                       # Number of times complete TLB was flushed
system.switch_cpus01.dtb.flush_tlb_mva              0                       # Number of times TLB was flushed by MVA
system.switch_cpus01.dtb.flush_tlb_mva_asid            0                       # Number of times TLB was flushed by MVA & ASID
system.switch_cpus01.dtb.flush_tlb_asid             0                       # Number of times TLB was flushed by ASID
system.switch_cpus01.dtb.flush_entries              0                       # Number of entries that have been flushed from TLB
system.switch_cpus01.dtb.align_faults               0                       # Number of TLB faults due to alignment restrictions
system.switch_cpus01.dtb.prefetch_faults            0                       # Number of TLB faults due to prefetch
system.switch_cpus01.dtb.domain_faults              0                       # Number of TLB faults due to domain restrictions
system.switch_cpus01.dtb.perms_faults               0                       # Number of TLB faults due to permissions restrictions
system.switch_cpus01.dtb.read_accesses              0                       # DTB read accesses
system.switch_cpus01.dtb.write_accesses             0                       # DTB write accesses
system.switch_cpus01.dtb.inst_accesses              0                       # ITB inst accesses
system.switch_cpus01.dtb.hits                       0                       # DTB hits
[...]
system.cpu15.icache.demand_avg_miss_latency::total 1413606.589286                       # average overall miss latency
system.cpu15.icache.overall_avg_miss_latency::switch_cpus15.inst 1413606.589286                       # average overall miss latency
system.cpu15.icache.overall_avg_miss_latency::total 1413606.589286                       # average overall miss latency
system.cpu15.icache.blocked_cycles::no_mshrs            0                       # number of cycles access was blocked
system.cpu15.icache.blocked_cycles::no_targets            0                       # number of cycles access was blocked
system.cpu15.icache.blocked::no_mshrs               0                       # number of cycles access was blocked
system.cpu15.icache.blocked::no_targets             0                       # number of cycles access was blocked
system.cpu15.icache.avg_blocked_cycles::no_mshrs          nan                       # average number of cycles each access was blocked
system.cpu15.icache.avg_blocked_cycles::no_targets          nan                       # average number of cycles each access was blocked
system.cpu15.icache.fast_writes                     0                       # number of fast writes performed
system.cpu15.icache.cache_copies                    0                       # number of cache copies performed
system.cpu15.icache.ReadReq_mshr_hits::switch_cpus15.inst           16                       # number of ReadReq MSHR hits
system.cpu15.icache.ReadReq_mshr_hits::total           16                       # number of ReadReq MSHR hits
system.cpu15.icache.demand_mshr_hits::switch_cpus15.inst           16                       # number of demand (read+write) MSHR hits
system.cpu15.icache.demand_mshr_hits::total           16                       # number of demand (read+write) MSHR hits
system.cpu15.icache.overall_mshr_hits::switch_cpus15.inst           16                       # number of overall MSHR hits
system.cpu15.icache.overall_mshr_hits::total           16                       # number of overall MSHR hits
system.cpu15.icache.ReadReq_mshr_misses::switch_cpus15.inst           40                       # number of ReadReq MSHR misses
system.cpu15.icache.ReadReq_mshr_misses::total           40                       # number of ReadReq MSHR misses
system.cpu15.icache.demand_mshr_misses::switch_cpus15.inst           40                       # number of demand (read+write) MSHR misses
system.cpu15.icache.demand_mshr_misses::total           40                       # number of demand (read+write) MSHR misses
system.cpu15.icache.overall_mshr_misses::switch_cpus15.inst           40                       # number of overall MSHR misses
system.cpu15.icache.overall_mshr_misses::total           40                       # number of overall MSHR misses
system.cpu15.icache.ReadReq_mshr_miss_latency::switch_cpus15.inst     55132273                       # number of ReadReq MSHR miss cycles
system.cpu15.icache.ReadReq_mshr_miss_latency::total     55132273                       # number of ReadReq MSHR miss cycles
system.cpu15.icache.demand_mshr_miss_latency::switch_cpus15.inst     55132273                       # number of demand (read+write) MSHR miss cycles
system.cpu15.icache.demand_mshr_miss_latency::total     55132273                       # number of demand (read+write) MSHR miss cycles
system.cpu15.icache.overall_mshr_miss_latency::switch_cpus15.inst     55132273                       # number of overall MSHR miss cycles
system.cpu15.icache.overall_mshr_miss_latency::total     55132273                       # number of overall MSHR miss cycles
system.cpu15.icache.ReadReq_mshr_miss_rate::switch_cpus15.inst     0.000003                       # mshr miss rate for ReadReq accesses
system.cpu15.icache.ReadReq_mshr_miss_rate::total     0.000003                       # mshr miss rate for ReadReq accesses
system.cpu15.icache.demand_mshr_miss_rate::switch_cpus15.inst     0.000003                       # mshr miss rate for demand accesses
system.cpu15.icache.demand_mshr_miss_rate::total     0.000003                       # mshr miss rate for demand accesses
system.cpu15.icache.overall_mshr_miss_rate::switch_cpus15.inst     0.000003                       # mshr miss rate for overall accesses
system.cpu15.icache.overall_mshr_miss_rate::total     0.000003                       # mshr miss rate for overall accesses
system.cpu15.icache.ReadReq_avg_mshr_miss_latency::switch_cpus15.inst 1378306.825000                       # average ReadReq mshr miss latency
system.cpu15.icache.ReadReq_avg_mshr_miss_latency::total 1378306.825000                       # average ReadReq mshr miss latency
system.cpu15.icache.demand_avg_mshr_miss_latency::switch_cpus15.inst 1378306.825000                       # average overall mshr miss latency
system.cpu15.icache.demand_avg_mshr_miss_latency::total 1378306.825000                       # average overall mshr miss latency
system.cpu15.icache.overall_avg_mshr_miss_latency::switch_cpus15.inst 1378306.825000                       # average overall mshr miss latency
system.cpu15.icache.overall_avg_mshr_miss_latency::total 1378306.825000                       # average overall mshr miss latency
system.cpu15.icache.no_allocate_misses              0                       # Number of misses that were no-allocate
system.cpu15.dcache.replacements                78620                       # number of replacements
system.cpu15.dcache.tagsinuse                     256                       # Cycle average of tags in use
system.cpu15.dcache.total_refs              194038912                       # Total number of references to valid blocks.
system.cpu15.dcache.sampled_refs                78876                       # Sample count of references to valid blocks.
system.cpu15.dcache.avg_refs              2460.050104                       # Average number of references to valid blocks.
system.cpu15.dcache.warmup_cycle                    0                       # Cycle when the warmup percentage was hit.
system.cpu15.dcache.occ_blocks::switch_cpus15.data   234.343146                       # Average occupied blocks per requestor
system.cpu15.dcache.occ_blocks::cpu15.data    21.656854                       # Average occupied blocks per requestor
system.cpu15.dcache.occ_percent::switch_cpus15.data     0.915403                       # Average percentage of cache occupancy
system.cpu15.dcache.occ_percent::cpu15.data     0.084597                       # Average percentage of cache occupancy
system.cpu15.dcache.occ_percent::total              1                       # Average percentage of cache occupancy
system.cpu15.dcache.ReadReq_hits::switch_cpus15.data      9230291                       # number of ReadReq hits
system.cpu15.dcache.ReadReq_hits::total       9230291                       # number of ReadReq hits
system.cpu15.dcache.WriteReq_hits::switch_cpus15.data      7649047                       # number of WriteReq hits
system.cpu15.dcache.WriteReq_hits::total      7649047                       # number of WriteReq hits
system.cpu15.dcache.LoadLockedReq_hits::switch_cpus15.data        22063                       # number of LoadLockedReq hits
system.cpu15.dcache.LoadLockedReq_hits::total        22063                       # number of LoadLockedReq hits
system.cpu15.dcache.StoreCondReq_hits::switch_cpus15.data        17845                       # number of StoreCondReq hits
system.cpu15.dcache.StoreCondReq_hits::total        17845                       # number of StoreCondReq hits
system.cpu15.dcache.demand_hits::switch_cpus15.data     16879338                       # number of demand (read+write) hits
system.cpu15.dcache.demand_hits::total       16879338                       # number of demand (read+write) hits
system.cpu15.dcache.overall_hits::switch_cpus15.data     16879338                       # number of overall hits
system.cpu15.dcache.overall_hits::total      16879338                       # number of overall hits
system.cpu15.dcache.ReadReq_misses::switch_cpus15.data       205142                       # number of ReadReq misses
system.cpu15.dcache.ReadReq_misses::total       205142                       # number of ReadReq misses
system.cpu15.dcache.WriteReq_misses::switch_cpus15.data         1007                       # number of WriteReq misses
system.cpu15.dcache.WriteReq_misses::total         1007                       # number of WriteReq misses
system.cpu15.dcache.demand_misses::switch_cpus15.data       206149                       # number of demand (read+write) misses
system.cpu15.dcache.demand_misses::total       206149                       # number of demand (read+write) misses
system.cpu15.dcache.overall_misses::switch_cpus15.data       206149                       # number of overall misses
system.cpu15.dcache.overall_misses::total       206149                       # number of overall misses
system.cpu15.dcache.ReadReq_miss_latency::switch_cpus15.data  89477562426                       # number of ReadReq miss cycles
system.cpu15.dcache.ReadReq_miss_latency::total  89477562426                       # number of ReadReq miss cycles
system.cpu15.dcache.WriteReq_miss_latency::switch_cpus15.data    350743834                       # number of WriteReq miss cycles
system.cpu15.dcache.WriteReq_miss_latency::total    350743834                       # number of WriteReq miss cycles
system.cpu15.dcache.demand_miss_latency::switch_cpus15.data  89828306260                       # number of demand (read+write) miss cycles
system.cpu15.dcache.demand_miss_latency::total  89828306260                       # number of demand (read+write) miss cycles
system.cpu15.dcache.overall_miss_latency::switch_cpus15.data  89828306260                       # number of overall miss cycles
system.cpu15.dcache.overall_miss_latency::total  89828306260                       # number of overall miss cycles
system.cpu15.dcache.ReadReq_accesses::switch_cpus15.data      9435433                       # number of ReadReq accesses(hits+misses)
system.cpu15.dcache.ReadReq_accesses::total      9435433                       # number of ReadReq accesses(hits+misses)
system.cpu15.dcache.WriteReq_accesses::switch_cpus15.data      7650054                       # number of WriteReq accesses(hits+misses)
system.cpu15.dcache.WriteReq_accesses::total      7650054                       # number of WriteReq accesses(hits+misses)
system.cpu15.dcache.LoadLockedReq_accesses::switch_cpus15.data        22063                       # number of LoadLockedReq accesses(hits+misses)
system.cpu15.dcache.LoadLockedReq_accesses::total        22063                       # number of LoadLockedReq accesses(hits+misses)
system.cpu15.dcache.StoreCondReq_accesses::switch_cpus15.data        17845                       # number of StoreCondReq accesses(hits+misses)
system.cpu15.dcache.StoreCondReq_accesses::total        17845                       # number of StoreCondReq accesses(hits+misses)
system.cpu15.dcache.demand_accesses::switch_cpus15.data     17085487                       # number of demand (read+write) accesses
system.cpu15.dcache.demand_accesses::total     17085487                       # number of demand (read+write) accesses
system.cpu15.dcache.overall_accesses::switch_cpus15.data     17085487                       # number of overall (read+write) accesses
system.cpu15.dcache.overall_accesses::total     17085487                       # number of overall (read+write) accesses
system.cpu15.dcache.ReadReq_miss_rate::switch_cpus15.data     0.021742                       # miss rate for ReadReq accesses
system.cpu15.dcache.ReadReq_miss_rate::total     0.021742                       # miss rate for ReadReq accesses
system.cpu15.dcache.WriteReq_miss_rate::switch_cpus15.data     0.000132                       # miss rate for WriteReq accesses
system.cpu15.dcache.WriteReq_miss_rate::total     0.000132                       # miss rate for WriteReq accesses
system.cpu15.dcache.demand_miss_rate::switch_cpus15.data     0.012066                       # miss rate for demand accesses
system.cpu15.dcache.demand_miss_rate::total     0.012066                       # miss rate for demand accesses
system.cpu15.dcache.overall_miss_rate::switch_cpus15.data     0.012066                       # miss rate for overall accesses
system.cpu15.dcache.overall_miss_rate::total     0.012066                       # miss rate for overall accesses
system.cpu15.dcache.ReadReq_avg_miss_latency::switch_cpus15.data 436173.784140                       # average ReadReq miss latency
system.cpu15.dcache.ReadReq_avg_miss_latency::total 436173.784140                       # average ReadReq miss latency
system.cpu15.dcache.WriteReq_avg_miss_latency::switch_cpus15.data 348305.694141                       # average WriteReq miss latency
system.cpu15.dcache.WriteReq_avg_miss_latency::total 348305.694141                       # average WriteReq miss latency
system.cpu15.dcache.demand_avg_miss_latency::switch_cpus15.data 435744.564660                       # average overall miss latency
system.cpu15.dcache.demand_avg_miss_latency::total 435744.564660                       # average overall miss latency
system.cpu15.dcache.overall_avg_miss_latency::switch_cpus15.data 435744.564660                       # average overall miss latency
system.cpu15.dcache.overall_avg_miss_latency::total 435744.564660                       # average overall miss latency
system.cpu15.dcache.blocked_cycles::no_mshrs            0                       # number of cycles access was blocked
system.cpu15.dcache.blocked_cycles::no_targets       156058                       # number of cycles access was blocked
system.cpu15.dcache.blocked::no_mshrs               0                       # number of cycles access was blocked
system.cpu15.dcache.blocked::no_targets             1                       # number of cycles access was blocked
system.cpu15.dcache.avg_blocked_cycles::no_mshrs          nan                       # average number of cycles each access was blocked
system.cpu15.dcache.avg_blocked_cycles::no_targets       156058                       # average number of cycles each access was blocked
system.cpu15.dcache.fast_writes                     0                       # number of fast writes performed
system.cpu15.dcache.cache_copies                    0                       # number of cache copies performed
system.cpu15.dcache.writebacks::writebacks         9063                       # number of writebacks
system.cpu15.dcache.writebacks::total            9063                       # number of writebacks
system.cpu15.dcache.ReadReq_mshr_hits::switch_cpus15.data       126668                       # number of ReadReq MSHR hits
system.cpu15.dcache.ReadReq_mshr_hits::total       126668                       # number of ReadReq MSHR hits
system.cpu15.dcache.WriteReq_mshr_hits::switch_cpus15.data          861                       # number of WriteReq MSHR hits
system.cpu15.dcache.WriteReq_mshr_hits::total          861                       # number of WriteReq MSHR hits
system.cpu15.dcache.demand_mshr_hits::switch_cpus15.data       127529                       # number of demand (read+write) MSHR hits
system.cpu15.dcache.demand_mshr_hits::total       127529                       # number of demand (read+write) MSHR hits
system.cpu15.dcache.overall_mshr_hits::switch_cpus15.data       127529                       # number of overall MSHR hits
system.cpu15.dcache.overall_mshr_hits::total       127529                       # number of overall MSHR hits
system.cpu15.dcache.ReadReq_mshr_misses::switch_cpus15.data        78474                       # number of ReadReq MSHR misses
system.cpu15.dcache.ReadReq_mshr_misses::total        78474                       # number of ReadReq MSHR misses
system.cpu15.dcache.WriteReq_mshr_misses::switch_cpus15.data          146                       # number of WriteReq MSHR misses
system.cpu15.dcache.WriteReq_mshr_misses::total          146                       # number of WriteReq MSHR misses
system.cpu15.dcache.demand_mshr_misses::switch_cpus15.data        78620                       # number of demand (read+write) MSHR misses
system.cpu15.dcache.demand_mshr_misses::total        78620                       # number of demand (read+write) MSHR misses
system.cpu15.dcache.overall_mshr_misses::switch_cpus15.data        78620                       # number of overall MSHR misses
system.cpu15.dcache.overall_mshr_misses::total        78620                       # number of overall MSHR misses
system.cpu15.dcache.ReadReq_mshr_miss_latency::switch_cpus15.data  35100898213                       # number of ReadReq MSHR miss cycles
system.cpu15.dcache.ReadReq_mshr_miss_latency::total  35100898213                       # number of ReadReq MSHR miss cycles
system.cpu15.dcache.WriteReq_mshr_miss_latency::switch_cpus15.data     35209083                       # number of WriteReq MSHR miss cycles
system.cpu15.dcache.WriteReq_mshr_miss_latency::total     35209083                       # number of WriteReq MSHR miss cycles
system.cpu15.dcache.demand_mshr_miss_latency::switch_cpus15.data  35136107296                       # number of demand (read+write) MSHR miss cycles
system.cpu15.dcache.demand_mshr_miss_latency::total  35136107296                       # number of demand (read+write) MSHR miss cycles
system.cpu15.dcache.overall_mshr_miss_latency::switch_cpus15.data  35136107296                       # number of overall MSHR miss cycles
system.cpu15.dcache.overall_mshr_miss_latency::total  35136107296                       # number of overall MSHR miss cycles
system.cpu15.dcache.ReadReq_mshr_miss_rate::switch_cpus15.data     0.008317                       # mshr miss rate for ReadReq accesses
system.cpu15.dcache.ReadReq_mshr_miss_rate::total     0.008317                       # mshr miss rate for ReadReq accesses
system.cpu15.dcache.WriteReq_mshr_miss_rate::switch_cpus15.data     0.000019                       # mshr miss rate for WriteReq accesses
system.cpu15.dcache.WriteReq_mshr_miss_rate::total     0.000019                       # mshr miss rate for WriteReq accesses
system.cpu15.dcache.demand_mshr_miss_rate::switch_cpus15.data     0.004602                       # mshr miss rate for demand accesses
system.cpu15.dcache.demand_mshr_miss_rate::total     0.004602                       # mshr miss rate for demand accesses
system.cpu15.dcache.overall_mshr_miss_rate::switch_cpus15.data     0.004602                       # mshr miss rate for overall accesses
system.cpu15.dcache.overall_mshr_miss_rate::total     0.004602                       # mshr miss rate for overall accesses
system.cpu15.dcache.ReadReq_avg_mshr_miss_latency::switch_cpus15.data 447293.348281                       # average ReadReq mshr miss latency
system.cpu15.dcache.ReadReq_avg_mshr_miss_latency::total 447293.348281                       # average ReadReq mshr miss latency
system.cpu15.dcache.WriteReq_avg_mshr_miss_latency::switch_cpus15.data 241158.102740                       # average WriteReq mshr miss latency
system.cpu15.dcache.WriteReq_avg_mshr_miss_latency::total 241158.102740                       # average WriteReq mshr miss latency
system.cpu15.dcache.demand_avg_mshr_miss_latency::switch_cpus15.data 446910.548156                       # average overall mshr miss latency
system.cpu15.dcache.demand_avg_mshr_miss_latency::total 446910.548156                       # average overall mshr miss latency
system.cpu15.dcache.overall_avg_mshr_miss_latency::switch_cpus15.data 446910.548156                       # average overall mshr miss latency
system.cpu15.dcache.overall_avg_mshr_miss_latency::total 446910.548156                       # average overall mshr miss latency
system.cpu15.dcache.no_allocate_misses              0                       # Number of misses that were no-allocate

---------- End Simulation Statistics   ----------
