
---------- Begin Simulation Statistics ----------
sim_seconds                                  0.037503                       # Number of seconds simulated
sim_ticks                                 37502899170                       # Number of ticks simulated
final_tick                               567067279107                       # Number of ticks from beginning of simulation (restored from checkpoints and never reset)
sim_freq                                 1000000000000                       # Frequency of simulated ticks
host_inst_rate                                 294832                       # Simulator instruction rate (inst/s)
host_op_rate                                   372244                       # Simulator op (including micro ops) rate (op/s)
host_tick_rate                                2499031                       # Simulator tick rate (ticks/s)
host_mem_usage                               16924500                       # Number of bytes of host memory used
host_seconds                                 15006.98                       # Real time elapsed on the host
sim_insts                                  4424543665                       # Number of instructions simulated
sim_ops                                    5586259068                       # Number of ops (including micro ops) simulated
system.physmem.bytes_read::switch_cpus0.inst         1408                       # Number of bytes read from this memory
system.physmem.bytes_read::switch_cpus0.data      3030528                       # Number of bytes read from this memory
system.physmem.bytes_read::switch_cpus1.inst         1792                       # Number of bytes read from this memory
system.physmem.bytes_read::switch_cpus1.data      1106560                       # Number of bytes read from this memory
system.physmem.bytes_read::switch_cpus2.inst         2176                       # Number of bytes read from this memory
system.physmem.bytes_read::switch_cpus2.data       789248                       # Number of bytes read from this memory
system.physmem.bytes_read::switch_cpus3.inst         1664                       # Number of bytes read from this memory
system.physmem.bytes_read::switch_cpus3.data      1659904                       # Number of bytes read from this memory
system.physmem.bytes_read::total              6593280                       # Number of bytes read from this memory
system.physmem.bytes_inst_read::switch_cpus0.inst         1408                       # Number of instructions bytes read from this memory
system.physmem.bytes_inst_read::switch_cpus1.inst         1792                       # Number of instructions bytes read from this memory
system.physmem.bytes_inst_read::switch_cpus2.inst         2176                       # Number of instructions bytes read from this memory
system.physmem.bytes_inst_read::switch_cpus3.inst         1664                       # Number of instructions bytes read from this memory
system.physmem.bytes_inst_read::total            7040                       # Number of instructions bytes read from this memory
system.physmem.bytes_written::writebacks      2740096                       # Number of bytes written to this memory
system.physmem.bytes_written::total           2740096                       # Number of bytes written to this memory
system.physmem.num_reads::switch_cpus0.inst           11                       # Number of read requests responded to by this memory
system.physmem.num_reads::switch_cpus0.data        23676                       # Number of read requests responded to by this memory
system.physmem.num_reads::switch_cpus1.inst           14                       # Number of read requests responded to by this memory
system.physmem.num_reads::switch_cpus1.data         8645                       # Number of read requests responded to by this memory
system.physmem.num_reads::switch_cpus2.inst           17                       # Number of read requests responded to by this memory
system.physmem.num_reads::switch_cpus2.data         6166                       # Number of read requests responded to by this memory
system.physmem.num_reads::switch_cpus3.inst           13                       # Number of read requests responded to by this memory
system.physmem.num_reads::switch_cpus3.data        12968                       # Number of read requests responded to by this memory
system.physmem.num_reads::total                 51510                       # Number of read requests responded to by this memory
system.physmem.num_writes::writebacks           21407                       # Number of write requests responded to by this memory
system.physmem.num_writes::functional               0                       # Number of write requests responded to by this memory
system.physmem.num_writes::interrupt                0                       # Number of write requests responded to by this memory
system.physmem.num_writes::switch_cpus0.dtb.walker            0                       # Number of write requests responded to by this memory
system.physmem.num_writes::switch_cpus0.itb.walker            0                       # Number of write requests responded to by this memory
system.physmem.num_writes::switch_cpus0.inst            0                       # Number of write requests responded to by this memory
system.physmem.num_writes::switch_cpus0.data            0                       # Number of write requests responded to by this memory
system.physmem.num_writes::switch_cpus1.dtb.walker            0                       # Number of write requests responded to by this memory
system.physmem.num_writes::switch_cpus1.itb.walker            0                       # Number of write requests responded to by this memory
system.physmem.num_writes::switch_cpus1.inst            0                       # Number of write requests responded to by this memory
system.physmem.num_writes::switch_cpus1.data            0                       # Number of write requests responded to by this memory
system.physmem.num_writes::switch_cpus2.dtb.walker            0                       # Number of write requests responded to by this memory
system.physmem.num_writes::switch_cpus2.itb.walker            0                       # Number of write requests responded to by this memory
system.physmem.num_writes::switch_cpus2.inst            0                       # Number of write requests responded to by this memory
system.physmem.num_writes::switch_cpus2.data            0                       # Number of write requests responded to by this memory
system.physmem.num_writes::switch_cpus3.dtb.walker            0                       # Number of write requests responded to by this memory
system.physmem.num_writes::switch_cpus3.itb.walker            0                       # Number of write requests responded to by this memory
system.physmem.num_writes::switch_cpus3.inst            0                       # Number of write requests responded to by this memory
system.physmem.num_writes::switch_cpus3.data            0                       # Number of write requests responded to by this memory
system.physmem.num_writes::cpu0.dtb.walker            0                       # Number of write requests responded to by this memory
system.physmem.num_writes::cpu0.itb.walker            0                       # Number of write requests responded to by this memory
system.physmem.num_writes::cpu0.inst                0                       # Number of write requests responded to by this memory
system.physmem.num_writes::cpu0.data                0                       # Number of write requests responded to by this memory
system.physmem.num_writes::cpu1.dtb.walker            0                       # Number of write requests responded to by this memory
system.physmem.num_writes::cpu1.itb.walker            0                       # Number of write requests responded to by this memory
system.physmem.num_writes::cpu1.inst                0                       # Number of write requests responded to by this memory
system.physmem.num_writes::cpu1.data                0                       # Number of write requests responded to by this memory
system.physmem.num_writes::cpu2.dtb.walker            0                       # Number of write requests responded to by this memory
system.physmem.num_writes::cpu2.itb.walker            0                       # Number of write requests responded to by this memory
system.physmem.num_writes::cpu2.inst                0                       # Number of write requests responded to by this memory
system.physmem.num_writes::cpu2.data                0                       # Number of write requests responded to by this memory
system.physmem.num_writes::cpu3.dtb.walker            0                       # Number of write requests responded to by this memory
system.physmem.num_writes::cpu3.itb.walker            0                       # Number of write requests responded to by this memory
system.physmem.num_writes::cpu3.inst                0                       # Number of write requests responded to by this memory
system.physmem.num_writes::cpu3.data                0                       # Number of write requests responded to by this memory
system.physmem.num_writes::total                21407                       # Number of write requests responded to by this memory
system.physmem.bw_read::switch_cpus0.inst        37544                       # Total read bandwidth from this memory (bytes/s)
system.physmem.bw_read::switch_cpus0.data     80807833                       # Total read bandwidth from this memory (bytes/s)
system.physmem.bw_read::switch_cpus1.inst        47783                       # Total read bandwidth from this memory (bytes/s)
system.physmem.bw_read::switch_cpus1.data     29505986                       # Total read bandwidth from this memory (bytes/s)
system.physmem.bw_read::switch_cpus2.inst        58022                       # Total read bandwidth from this memory (bytes/s)
system.physmem.bw_read::switch_cpus2.data     21044986                       # Total read bandwidth from this memory (bytes/s)
system.physmem.bw_read::switch_cpus3.inst        44370                       # Total read bandwidth from this memory (bytes/s)
system.physmem.bw_read::switch_cpus3.data     44260685                       # Total read bandwidth from this memory (bytes/s)
system.physmem.bw_read::total               175807208                       # Total read bandwidth from this memory (bytes/s)
system.physmem.bw_inst_read::switch_cpus0.inst        37544                       # Instruction read bandwidth from this memory (bytes/s)
system.physmem.bw_inst_read::switch_cpus1.inst        47783                       # Instruction read bandwidth from this memory (bytes/s)
system.physmem.bw_inst_read::switch_cpus2.inst        58022                       # Instruction read bandwidth from this memory (bytes/s)
system.physmem.bw_inst_read::switch_cpus3.inst        44370                       # Instruction read bandwidth from this memory (bytes/s)
system.physmem.bw_inst_read::total             187719                       # Instruction read bandwidth from this memory (bytes/s)
system.physmem.bw_write::writebacks          73063578                       # Write bandwidth from this memory (bytes/s)
system.physmem.bw_write::total               73063578                       # Write bandwidth from this memory (bytes/s)
system.physmem.bw_total::writebacks          73063578                       # Total bandwidth to/from this memory (bytes/s)
system.physmem.bw_total::switch_cpus0.inst        37544                       # Total bandwidth to/from this memory (bytes/s)
system.physmem.bw_total::switch_cpus0.data     80807833                       # Total bandwidth to/from this memory (bytes/s)
system.physmem.bw_total::switch_cpus1.inst        47783                       # Total bandwidth to/from this memory (bytes/s)
system.physmem.bw_total::switch_cpus1.data     29505986                       # Total bandwidth to/from this memory (bytes/s)
system.physmem.bw_total::switch_cpus2.inst        58022                       # Total bandwidth to/from this memory (bytes/s)
system.physmem.bw_total::switch_cpus2.data     21044986                       # Total bandwidth to/from this memory (bytes/s)
system.physmem.bw_total::switch_cpus3.inst        44370                       # Total bandwidth to/from this memory (bytes/s)
system.physmem.bw_total::switch_cpus3.data     44260685                       # Total bandwidth to/from this memory (bytes/s)
system.physmem.bw_total::total              248870786                       # Total bandwidth to/from this memory (bytes/s)
system.switch_cpus0.dtb.inst_hits                   0                       # ITB inst hits
system.switch_cpus0.dtb.inst_misses                 0                       # ITB inst misses
system.switch_cpus0.dtb.read_hits                   0                       # DTB read hits
system.switch_cpus0.dtb.read_misses                 0                       # DTB read misses
system.switch_cpus0.dtb.write_hits                  0                       # DTB write hits
system.switch_cpus0.dtb.write_misses                0                       # DTB write misses
system.switch_cpus0.dtb.flush_tlb                   0                       # Number of times complete TLB was flushed
system.switch_cpus0.dtb.flush_tlb_mva               0                       # Number of times TLB was flushed by MVA
system.switch_cpus0.dtb.flush_tlb_mva_asid            0                       # Number of times TLB was flushed by MVA & ASID
system.switch_cpus0.dtb.flush_tlb_asid              0                       # Number of times TLB was flushed by ASID
system.switch_cpus0.dtb.flush_entries               0                       # Number of entries that have been flushed from TLB
system.switch_cpus0.dtb.align_faults                0                       # Number of TLB faults due to alignment restrictions
system.switch_cpus0.dtb.prefetch_faults             0                       # Number of TLB faults due to prefetch
system.switch_cpus0.dtb.domain_faults               0                       # Number of TLB faults due to domain restrictions
system.switch_cpus0.dtb.perms_faults                0                       # Number of TLB faults due to permissions restrictions
system.switch_cpus0.dtb.read_accesses               0                       # DTB read accesses
system.switch_cpus0.dtb.write_accesses              0                       # DTB write accesses
system.switch_cpus0.dtb.inst_accesses               0                       # ITB inst accesses
system.switch_cpus0.dtb.hits                        0                       # DTB hits
system.switch_cpus0.dtb.misses                      0                       # DTB misses
system.switch_cpus0.dtb.accesses                    0                       # DTB accesses
system.switch_cpus0.itb.inst_hits                   0                       # ITB inst hits
system.switch_cpus0.itb.inst_misses                 0                       # ITB inst misses
system.switch_cpus0.itb.read_hits                   0                       # DTB read hits
system.switch_cpus0.itb.read_misses                 0                       # DTB read misses
system.switch_cpus0.itb.write_hits                  0                       # DTB write hits
system.switch_cpus0.itb.write_misses                0                       # DTB write misses
system.switch_cpus0.itb.flush_tlb                   0                       # Number of times complete TLB was flushed
system.switch_cpus0.itb.flush_tlb_mva               0                       # Number of times TLB was flushed by MVA
system.switch_cpus0.itb.flush_tlb_mva_asid            0                       # Number of times TLB was flushed by MVA & ASID
system.switch_cpus0.itb.flush_tlb_asid              0                       # Number of times TLB was flushed by ASID
system.switch_cpus0.itb.flush_entries               0                       # Number of entries that have been flushed from TLB
system.switch_cpus0.itb.align_faults                0                       # Number of TLB faults due to alignment restrictions
system.switch_cpus0.itb.prefetch_faults             0                       # Number of TLB faults due to prefetch
system.switch_cpus0.itb.domain_faults               0                       # Number of TLB faults due to domain restrictions
system.switch_cpus0.itb.perms_faults                0                       # Number of TLB faults due to permissions restrictions
system.switch_cpus0.itb.read_accesses               0                       # DTB read accesses
system.switch_cpus0.itb.write_accesses              0                       # DTB write accesses
system.switch_cpus0.itb.inst_accesses               0                       # ITB inst accesses
system.switch_cpus0.itb.hits                        0                       # DTB hits
system.switch_cpus0.itb.misses                      0                       # DTB misses
system.switch_cpus0.itb.accesses                    0                       # DTB accesses
system.cpu0.workload.num_syscalls                   0                       # Number of system calls
system.switch_cpus0.numCycles                89935011                       # number of cpu cycles simulated
system.switch_cpus0.numWorkItemsStarted             0                       # number of work items this cpu started
system.switch_cpus0.numWorkItemsCompleted            0                       # number of work items this cpu completed
system.switch_cpus0.BPredUnit.lookups        31013142                       # Number of BP lookups
system.switch_cpus0.BPredUnit.condPredicted     25438765                       # Number of conditional branches predicted
system.switch_cpus0.BPredUnit.condIncorrect      2018370                       # Number of conditional branches incorrect
system.switch_cpus0.BPredUnit.BTBLookups     13056048                       # Number of BTB lookups
system.switch_cpus0.BPredUnit.BTBHits        12085837                       # Number of BTB hits
system.switch_cpus0.BPredUnit.BTBCorrect            0                       # Number of correct BTB predictions (this stat may not work properly.
system.switch_cpus0.BPredUnit.usedRAS         3158349                       # Number of times the RAS was used to get a target.
system.switch_cpus0.BPredUnit.RASInCorrect        87222                       # Number of incorrect RAS predictions.
system.switch_cpus0.fetch.icacheStallCycles     32045110                       # Number of cycles fetch is stalled on an Icache miss
system.switch_cpus0.fetch.Insts             170412941                       # Number of instructions fetch has processed
system.switch_cpus0.fetch.Branches           31013142                       # Number of branches that fetch encountered
system.switch_cpus0.fetch.predictedBranches     15244186                       # Number of branches that fetch has predicted taken
system.switch_cpus0.fetch.Cycles             36611077                       # Number of cycles fetch has run and was not squashing or blocked
system.switch_cpus0.fetch.SquashCycles       10824872                       # Number of cycles fetch has spent squashing
system.switch_cpus0.fetch.BlockedCycles       8651813                       # Number of cycles fetch has spent blocked
system.switch_cpus0.fetch.PendingTrapStallCycles            1                       # Number of stall cycles due to pending traps
system.switch_cpus0.fetch.CacheLines         15674110                       # Number of cache lines fetched
system.switch_cpus0.fetch.IcacheSquashes       804324                       # Number of outstanding Icache misses that were squashed
system.switch_cpus0.fetch.rateDist::samples     86081987                       # Number of instructions fetched each cycle (Total)
system.switch_cpus0.fetch.rateDist::mean     2.432683                       # Number of instructions fetched each cycle (Total)
system.switch_cpus0.fetch.rateDist::stdev     3.317480                       # Number of instructions fetched each cycle (Total)
system.switch_cpus0.fetch.rateDist::underflows            0      0.00%      0.00% # Number of instructions fetched each cycle (Total)
system.switch_cpus0.fetch.rateDist::0        49470910     57.47%     57.47% # Number of instructions fetched each cycle (Total)
system.switch_cpus0.fetch.rateDist::1         3659915      4.25%     61.72% # Number of instructions fetched each cycle (Total)
system.switch_cpus0.fetch.rateDist::2         3196847      3.71%     65.43% # Number of instructions fetched each cycle (Total)
system.switch_cpus0.fetch.rateDist::3         3441173      4.00%     69.43% # Number of instructions fetched each cycle (Total)
system.switch_cpus0.fetch.rateDist::4         2995424      3.48%     72.91% # Number of instructions fetched each cycle (Total)
system.switch_cpus0.fetch.rateDist::5         1573609      1.83%     74.74% # Number of instructions fetched each cycle (Total)
system.switch_cpus0.fetch.rateDist::6         1027007      1.19%     75.93% # Number of instructions fetched each cycle (Total)
system.switch_cpus0.fetch.rateDist::7         2715509      3.15%     79.09% # Number of instructions fetched each cycle (Total)
system.switch_cpus0.fetch.rateDist::8        18001593     20.91%    100.00% # Number of instructions fetched each cycle (Total)
system.switch_cpus0.fetch.rateDist::overflows            0      0.00%    100.00% # Number of instructions fetched each cycle (Total)
system.switch_cpus0.fetch.rateDist::min_value            0                       # Number of instructions fetched each cycle (Total)
system.switch_cpus0.fetch.rateDist::max_value            8                       # Number of instructions fetched each cycle (Total)
system.switch_cpus0.fetch.rateDist::total     86081987                       # Number of instructions fetched each cycle (Total)
system.switch_cpus0.fetch.branchRate         0.344839                       # Number of branch fetches per cycle
system.switch_cpus0.fetch.rate               1.894845                       # Number of inst fetches per cycle
system.switch_cpus0.decode.IdleCycles        33709006                       # Number of cycles decode is idle
system.switch_cpus0.decode.BlockedCycles      8234257                       # Number of cycles decode is blocked
system.switch_cpus0.decode.RunCycles         34824303                       # Number of cycles decode is running
system.switch_cpus0.decode.UnblockCycles       546890                       # Number of cycles decode is unblocking
system.switch_cpus0.decode.SquashCycles       8767522                       # Number of cycles decode is squashing
system.switch_cpus0.decode.BranchResolved      5079804                       # Number of times decode resolved a branch
system.switch_cpus0.decode.BranchMispred         6655                       # Number of times decode detected a branch misprediction
system.switch_cpus0.decode.DecodedInsts     202087454                       # Number of instructions handled by decode
system.switch_cpus0.decode.SquashedInsts        51147                       # Number of squashed instructions handled by decode
system.switch_cpus0.rename.SquashCycles       8767522                       # Number of cycles rename is squashing
system.switch_cpus0.rename.IdleCycles        35384154                       # Number of cycles rename is idle
system.switch_cpus0.rename.BlockCycles        4362133                       # Number of cycles rename is blocking
system.switch_cpus0.rename.serializeStallCycles      1156098                       # count of cycles rename stalled for serializing inst
system.switch_cpus0.rename.RunCycles         33661662                       # Number of cycles rename is running
system.switch_cpus0.rename.UnblockCycles      2750410                       # Number of cycles rename is unblocking
system.switch_cpus0.rename.RenamedInsts     195227801                       # Number of instructions processed by rename
system.switch_cpus0.rename.ROBFullEvents        12637                       # Number of times rename has blocked due to ROB full
system.switch_cpus0.rename.IQFullEvents       1720608                       # Number of times rename has blocked due to IQ full
system.switch_cpus0.rename.LSQFullEvents       751455                       # Number of times rename has blocked due to LSQ full
system.switch_cpus0.rename.FullRegisterEvents           81                       # Number of times there has been no free registers
system.switch_cpus0.rename.RenamedOperands    271223325                       # Number of destination operands rename has renamed
system.switch_cpus0.rename.RenameLookups    910350261                       # Number of register rename lookups that rename has made
system.switch_cpus0.rename.int_rename_lookups    910350261                       # Number of integer rename lookups
system.switch_cpus0.rename.CommittedMaps    168259218                       # Number of HB maps that are committed
system.switch_cpus0.rename.UndoneMaps       102964066                       # Number of HB maps that are undone due to squashing
system.switch_cpus0.rename.serializingInsts        34006                       # count of serializing insts renamed
system.switch_cpus0.rename.tempSerializingInsts        17967                       # count of temporary serializing insts renamed
system.switch_cpus0.rename.skidInsts          7300076                       # count of insts added to the skid buffer
system.switch_cpus0.memDep0.insertedLoads     19243411                       # Number of loads inserted to the mem dependence unit.
system.switch_cpus0.memDep0.insertedStores     10032504                       # Number of stores inserted to the mem dependence unit.
system.switch_cpus0.memDep0.conflictingLoads       242099                       # Number of conflicting loads.
system.switch_cpus0.memDep0.conflictingStores      3149797                       # Number of conflicting stores.
system.switch_cpus0.iq.iqInstsAdded         184047452                       # Number of instructions added to the IQ (excludes non-spec)
system.switch_cpus0.iq.iqNonSpecInstsAdded        33975                       # Number of non-speculative instructions added to the IQ
system.switch_cpus0.iq.iqInstsIssued        147835764                       # Number of instructions issued
system.switch_cpus0.iq.iqSquashedInstsIssued       288358                       # Number of squashed instructions issued
system.switch_cpus0.iq.iqSquashedInstsExamined     61118366                       # Number of squashed instructions iterated over during squash; mainly for profiling
system.switch_cpus0.iq.iqSquashedOperandsExamined    186823406                       # Number of squashed operands that are examined and possibly removed from graph
system.switch_cpus0.iq.iqSquashedNonSpecRemoved         1931                       # Number of squashed non-spec instructions that were removed
system.switch_cpus0.iq.issued_per_cycle::samples     86081987                       # Number of insts issued each cycle
system.switch_cpus0.iq.issued_per_cycle::mean     1.717383                       # Number of insts issued each cycle
system.switch_cpus0.iq.issued_per_cycle::stdev     1.904709                       # Number of insts issued each cycle
system.switch_cpus0.iq.issued_per_cycle::underflows            0      0.00%      0.00% # Number of insts issued each cycle
system.switch_cpus0.iq.issued_per_cycle::0     31818794     36.96%     36.96% # Number of insts issued each cycle
system.switch_cpus0.iq.issued_per_cycle::1     17895425     20.79%     57.75% # Number of insts issued each cycle
system.switch_cpus0.iq.issued_per_cycle::2     11973759     13.91%     71.66% # Number of insts issued each cycle
system.switch_cpus0.iq.issued_per_cycle::3      7632660      8.87%     80.53% # Number of insts issued each cycle
system.switch_cpus0.iq.issued_per_cycle::4      7546334      8.77%     89.30% # Number of insts issued each cycle
system.switch_cpus0.iq.issued_per_cycle::5      4431666      5.15%     94.44% # Number of insts issued each cycle
system.switch_cpus0.iq.issued_per_cycle::6      3385651      3.93%     98.38% # Number of insts issued each cycle
system.switch_cpus0.iq.issued_per_cycle::7       744315      0.86%     99.24% # Number of insts issued each cycle
system.switch_cpus0.iq.issued_per_cycle::8       653383      0.76%    100.00% # Number of insts issued each cycle
system.switch_cpus0.iq.issued_per_cycle::overflows            0      0.00%    100.00% # Number of insts issued each cycle
system.switch_cpus0.iq.issued_per_cycle::min_value            0                       # Number of insts issued each cycle
system.switch_cpus0.iq.issued_per_cycle::max_value            8                       # Number of insts issued each cycle
system.switch_cpus0.iq.issued_per_cycle::total     86081987                       # Number of insts issued each cycle
system.switch_cpus0.iq.fu_full::No_OpClass            0      0.00%      0.00% # attempts to use FU when none available
system.switch_cpus0.iq.fu_full::IntAlu        1083105     70.12%     70.12% # attempts to use FU when none available
system.switch_cpus0.iq.fu_full::IntMult            40      0.00%     70.12% # attempts to use FU when none available
system.switch_cpus0.iq.fu_full::IntDiv              0      0.00%     70.12% # attempts to use FU when none available
system.switch_cpus0.iq.fu_full::FloatAdd            0      0.00%     70.12% # attempts to use FU when none available
system.switch_cpus0.iq.fu_full::FloatCmp            0      0.00%     70.12% # attempts to use FU when none available
system.switch_cpus0.iq.fu_full::FloatCvt            0      0.00%     70.12% # attempts to use FU when none available
system.switch_cpus0.iq.fu_full::FloatMult            0      0.00%     70.12% # attempts to use FU when none available
system.switch_cpus0.iq.fu_full::FloatDiv            0      0.00%     70.12% # attempts to use FU when none available
system.switch_cpus0.iq.fu_full::FloatSqrt            0      0.00%     70.12% # attempts to use FU when none available
system.switch_cpus0.iq.fu_full::SimdAdd             0      0.00%     70.12% # attempts to use FU when none available
system.switch_cpus0.iq.fu_full::SimdAddAcc            0      0.00%     70.12% # attempts to use FU when none available
system.switch_cpus0.iq.fu_full::SimdAlu             0      0.00%     70.12% # attempts to use FU when none available
system.switch_cpus0.iq.fu_full::SimdCmp             0      0.00%     70.12% # attempts to use FU when none available
system.switch_cpus0.iq.fu_full::SimdCvt             0      0.00%     70.12% # attempts to use FU when none available
system.switch_cpus0.iq.fu_full::SimdMisc            0      0.00%     70.12% # attempts to use FU when none available
system.switch_cpus0.iq.fu_full::SimdMult            0      0.00%     70.12% # attempts to use FU when none available
system.switch_cpus0.iq.fu_full::SimdMultAcc            0      0.00%     70.12% # attempts to use FU when none available
system.switch_cpus0.iq.fu_full::SimdShift            0      0.00%     70.12% # attempts to use FU when none available
system.switch_cpus0.iq.fu_full::SimdShiftAcc            0      0.00%     70.12% # attempts to use FU when none available
system.switch_cpus0.iq.fu_full::SimdSqrt            0      0.00%     70.12% # attempts to use FU when none available
system.switch_cpus0.iq.fu_full::SimdFloatAdd            0      0.00%     70.12% # attempts to use FU when none available
system.switch_cpus0.iq.fu_full::SimdFloatAlu            0      0.00%     70.12% # attempts to use FU when none available
system.switch_cpus0.iq.fu_full::SimdFloatCmp            0      0.00%     70.12% # attempts to use FU when none available
system.switch_cpus0.iq.fu_full::SimdFloatCvt            0      0.00%     70.12% # attempts to use FU when none available
system.switch_cpus0.iq.fu_full::SimdFloatDiv            0      0.00%     70.12% # attempts to use FU when none available
system.switch_cpus0.iq.fu_full::SimdFloatMisc            0      0.00%     70.12% # attempts to use FU when none available
system.switch_cpus0.iq.fu_full::SimdFloatMult            0      0.00%     70.12% # attempts to use FU when none available
system.switch_cpus0.iq.fu_full::SimdFloatMultAcc            0      0.00%     70.12% # attempts to use FU when none available
system.switch_cpus0.iq.fu_full::SimdFloatSqrt            0      0.00%     70.12% # attempts to use FU when none available
system.switch_cpus0.iq.fu_full::MemRead        202230     13.09%     83.22% # attempts to use FU when none available
system.switch_cpus0.iq.fu_full::MemWrite       259222     16.78%    100.00% # attempts to use FU when none available
system.switch_cpus0.iq.fu_full::IprAccess            0      0.00%    100.00% # attempts to use FU when none available
system.switch_cpus0.iq.fu_full::InstPrefetch            0      0.00%    100.00% # attempts to use FU when none available
system.switch_cpus0.iq.FU_type_0::No_OpClass            0      0.00%      0.00% # Type of FU issued
system.switch_cpus0.iq.FU_type_0::IntAlu    121616938     82.26%     82.26% # Type of FU issued
system.switch_cpus0.iq.FU_type_0::IntMult      2017667      1.36%     83.63% # Type of FU issued
system.switch_cpus0.iq.FU_type_0::IntDiv            0      0.00%     83.63% # Type of FU issued
system.switch_cpus0.iq.FU_type_0::FloatAdd            0      0.00%     83.63% # Type of FU issued
system.switch_cpus0.iq.FU_type_0::FloatCmp            0      0.00%     83.63% # Type of FU issued
system.switch_cpus0.iq.FU_type_0::FloatCvt            0      0.00%     83.63% # Type of FU issued
system.switch_cpus0.iq.FU_type_0::FloatMult            0      0.00%     83.63% # Type of FU issued
system.switch_cpus0.iq.FU_type_0::FloatDiv            0      0.00%     83.63% # Type of FU issued
system.switch_cpus0.iq.FU_type_0::FloatSqrt            0      0.00%     83.63% # Type of FU issued
system.switch_cpus0.iq.FU_type_0::SimdAdd            0      0.00%     83.63% # Type of FU issued
system.switch_cpus0.iq.FU_type_0::SimdAddAcc            0      0.00%     83.63% # Type of FU issued
system.switch_cpus0.iq.FU_type_0::SimdAlu            0      0.00%     83.63% # Type of FU issued
system.switch_cpus0.iq.FU_type_0::SimdCmp            0      0.00%     83.63% # Type of FU issued
system.switch_cpus0.iq.FU_type_0::SimdCvt            0      0.00%     83.63% # Type of FU issued
system.switch_cpus0.iq.FU_type_0::SimdMisc            0      0.00%     83.63% # Type of FU issued
system.switch_cpus0.iq.FU_type_0::SimdMult            0      0.00%     83.63% # Type of FU issued
system.switch_cpus0.iq.FU_type_0::SimdMultAcc            0      0.00%     83.63% # Type of FU issued
system.switch_cpus0.iq.FU_type_0::SimdShift            0      0.00%     83.63% # Type of FU issued
system.switch_cpus0.iq.FU_type_0::SimdShiftAcc            0      0.00%     83.63% # Type of FU issued
system.switch_cpus0.iq.FU_type_0::SimdSqrt            0      0.00%     83.63% # Type of FU issued
system.switch_cpus0.iq.FU_type_0::SimdFloatAdd            0      0.00%     83.63% # Type of FU issued
system.switch_cpus0.iq.FU_type_0::SimdFloatAlu            0      0.00%     83.63% # Type of FU issued
system.switch_cpus0.iq.FU_type_0::SimdFloatCmp            0      0.00%     83.63% # Type of FU issued
system.switch_cpus0.iq.FU_type_0::SimdFloatCvt            0      0.00%     83.63% # Type of FU issued
system.switch_cpus0.iq.FU_type_0::SimdFloatDiv            0      0.00%     83.63% # Type of FU issued
system.switch_cpus0.iq.FU_type_0::SimdFloatMisc        16022      0.01%     83.64% # Type of FU issued
system.switch_cpus0.iq.FU_type_0::SimdFloatMult            0      0.00%     83.64% # Type of FU issued
system.switch_cpus0.iq.FU_type_0::SimdFloatMultAcc            0      0.00%     83.64% # Type of FU issued
system.switch_cpus0.iq.FU_type_0::SimdFloatSqrt            0      0.00%     83.64% # Type of FU issued
system.switch_cpus0.iq.FU_type_0::MemRead     15746116     10.65%     94.29% # Type of FU issued
system.switch_cpus0.iq.FU_type_0::MemWrite      8439021      5.71%    100.00% # Type of FU issued
system.switch_cpus0.iq.FU_type_0::IprAccess            0      0.00%    100.00% # Type of FU issued
system.switch_cpus0.iq.FU_type_0::InstPrefetch            0      0.00%    100.00% # Type of FU issued
system.switch_cpus0.iq.FU_type_0::total     147835764                       # Type of FU issued
system.switch_cpus0.iq.rate                  1.643807                       # Inst issue rate
system.switch_cpus0.iq.fu_busy_cnt            1544597                       # FU busy when requested
system.switch_cpus0.iq.fu_busy_rate          0.010448                       # FU busy rate (busy events/executed inst)
system.switch_cpus0.iq.int_inst_queue_reads    383586466                       # Number of integer instruction queue reads
system.switch_cpus0.iq.int_inst_queue_writes    245200843                       # Number of integer instruction queue writes
system.switch_cpus0.iq.int_inst_queue_wakeup_accesses    143688593                       # Number of integer instruction queue wakeup accesses
system.switch_cpus0.iq.fp_inst_queue_reads            0                       # Number of floating instruction queue reads
system.switch_cpus0.iq.fp_inst_queue_writes            0                       # Number of floating instruction queue writes
system.switch_cpus0.iq.fp_inst_queue_wakeup_accesses            0                       # Number of floating instruction queue wakeup accesses
system.switch_cpus0.iq.int_alu_accesses     149380361                       # Number of integer alu accesses
system.switch_cpus0.iq.fp_alu_accesses              0                       # Number of floating point alu accesses
system.switch_cpus0.iew.lsq.thread0.forwLoads       261615                       # Number of loads that had data forwarded from stores
system.switch_cpus0.iew.lsq.thread0.invAddrLoads            0                       # Number of loads ignored due to an invalid address
system.switch_cpus0.iew.lsq.thread0.squashedLoads      7031282                       # Number of loads squashed
system.switch_cpus0.iew.lsq.thread0.ignoredResponses          403                       # Number of memory responses ignored because the instruction is squashed
system.switch_cpus0.iew.lsq.thread0.memOrderViolation         1061                       # Number of memory ordering violations
system.switch_cpus0.iew.lsq.thread0.squashedStores      2290831                       # Number of stores squashed
system.switch_cpus0.iew.lsq.thread0.invAddrSwpfs            0                       # Number of software prefetches ignored due to an invalid address
system.switch_cpus0.iew.lsq.thread0.blockedLoads            0                       # Number of blocked loads due to partial load-store forwarding
system.switch_cpus0.iew.lsq.thread0.rescheduledLoads          579                       # Number of loads that were rescheduled
system.switch_cpus0.iew.lsq.thread0.cacheBlocked            0                       # Number of times an access to memory failed due to the cache being blocked
system.switch_cpus0.iew.iewIdleCycles               0                       # Number of cycles IEW is idle
system.switch_cpus0.iew.iewSquashCycles       8767522                       # Number of cycles IEW is squashing
system.switch_cpus0.iew.iewBlockCycles        3565057                       # Number of cycles IEW is blocking
system.switch_cpus0.iew.iewUnblockCycles       164524                       # Number of cycles IEW is unblocking
system.switch_cpus0.iew.iewDispatchedInsts    184081427                       # Number of instructions dispatched to IQ
system.switch_cpus0.iew.iewDispSquashedInsts       298900                       # Number of squashed instructions skipped by dispatch
system.switch_cpus0.iew.iewDispLoadInsts     19243411                       # Number of dispatched load instructions
system.switch_cpus0.iew.iewDispStoreInsts     10032504                       # Number of dispatched store instructions
system.switch_cpus0.iew.iewDispNonSpecInsts        17953                       # Number of dispatched non-speculative instructions
system.switch_cpus0.iew.iewIQFullEvents        118365                       # Number of times the IQ has become full, causing a stall
system.switch_cpus0.iew.iewLSQFullEvents         6687                       # Number of times the LSQ has become full, causing a stall
system.switch_cpus0.iew.memOrderViolationEvents         1061                       # Number of memory order violations
system.switch_cpus0.iew.predictedTakenIncorrect      1234666                       # Number of branches that were predicted taken incorrectly
system.switch_cpus0.iew.predictedNotTakenIncorrect      1129133                       # Number of branches that were predicted not taken incorrectly
system.switch_cpus0.iew.branchMispredicts      2363799                       # Number of branch mispredicts detected at execute
system.switch_cpus0.iew.iewExecutedInsts    145253770                       # Number of executed instructions
system.switch_cpus0.iew.iewExecLoadInsts     14795388                       # Number of load instructions executed
system.switch_cpus0.iew.iewExecSquashedInsts      2581990                       # Number of squashed instructions skipped in execute
system.switch_cpus0.iew.exec_swp                    0                       # number of swp insts executed
system.switch_cpus0.iew.exec_nop                    0                       # number of nop insts executed
system.switch_cpus0.iew.exec_refs            22992300                       # number of memory reference insts executed
system.switch_cpus0.iew.exec_branches        20589079                       # Number of branches executed
system.switch_cpus0.iew.exec_stores           8196912                       # Number of stores executed
system.switch_cpus0.iew.exec_rate            1.615097                       # Inst execution rate
system.switch_cpus0.iew.wb_sent             143833704                       # cumulative count of insts sent to commit
system.switch_cpus0.iew.wb_count            143688593                       # cumulative count of insts written-back
system.switch_cpus0.iew.wb_producers         93738345                       # num instructions producing a value
system.switch_cpus0.iew.wb_consumers        261835125                       # num instructions consuming a value
system.switch_cpus0.iew.wb_penalized                0                       # number of instrctions required to write to 'other' IQ
system.switch_cpus0.iew.wb_rate              1.597694                       # insts written-back per cycle
system.switch_cpus0.iew.wb_fanout            0.358005                       # average fanout of values written-back
system.switch_cpus0.iew.wb_penalized_rate            0                       # fraction of instructions written-back that wrote to 'other' IQ
system.switch_cpus0.commit.commitCommittedInsts    100000000                       # The number of committed instructions
system.switch_cpus0.commit.commitCommittedOps    122421920                       # The number of committed instructions
system.switch_cpus0.commit.commitSquashedInsts     61663536                       # The number of squashed insts skipped by commit
system.switch_cpus0.commit.commitNonSpecStalls        32044                       # The number of times commit has been forced to stall to communicate backwards
system.switch_cpus0.commit.branchMispredicts      2043680                       # The number of times a branch was mispredicted
system.switch_cpus0.commit.committed_per_cycle::samples     77314465                       # Number of insts commited each cycle
system.switch_cpus0.commit.committed_per_cycle::mean     1.583428                       # Number of insts commited each cycle
system.switch_cpus0.commit.committed_per_cycle::stdev     2.158461                       # Number of insts commited each cycle
system.switch_cpus0.commit.committed_per_cycle::underflows            0      0.00%      0.00% # Number of insts commited each cycle
system.switch_cpus0.commit.committed_per_cycle::0     31988147     41.37%     41.37% # Number of insts commited each cycle
system.switch_cpus0.commit.committed_per_cycle::1     20463231     26.47%     67.84% # Number of insts commited each cycle
system.switch_cpus0.commit.committed_per_cycle::2      8388744     10.85%     78.69% # Number of insts commited each cycle
system.switch_cpus0.commit.committed_per_cycle::3      4294587      5.55%     84.25% # Number of insts commited each cycle
system.switch_cpus0.commit.committed_per_cycle::4      3679337      4.76%     89.01% # Number of insts commited each cycle
system.switch_cpus0.commit.committed_per_cycle::5      1806312      2.34%     91.34% # Number of insts commited each cycle
system.switch_cpus0.commit.committed_per_cycle::6      1998036      2.58%     93.93% # Number of insts commited each cycle
system.switch_cpus0.commit.committed_per_cycle::7      1008252      1.30%     95.23% # Number of insts commited each cycle
system.switch_cpus0.commit.committed_per_cycle::8      3687819      4.77%    100.00% # Number of insts commited each cycle
system.switch_cpus0.commit.committed_per_cycle::overflows            0      0.00%    100.00% # Number of insts commited each cycle
system.switch_cpus0.commit.committed_per_cycle::min_value            0                       # Number of insts commited each cycle
system.switch_cpus0.commit.committed_per_cycle::max_value            8                       # Number of insts commited each cycle
system.switch_cpus0.commit.committed_per_cycle::total     77314465                       # Number of insts commited each cycle
system.switch_cpus0.commit.committedInsts    100000000                       # Number of instructions committed
system.switch_cpus0.commit.committedOps     122421920                       # Number of ops (including micro ops) committed
system.switch_cpus0.commit.swp_count                0                       # Number of s/w prefetches committed
system.switch_cpus0.commit.refs              19953799                       # Number of memory references committed
system.switch_cpus0.commit.loads             12212129                       # Number of loads committed
system.switch_cpus0.commit.membars              16022                       # Number of memory barriers committed
system.switch_cpus0.commit.branches          17573934                       # Number of branches committed
system.switch_cpus0.commit.fp_insts                 0                       # Number of committed floating point instructions.
system.switch_cpus0.commit.int_insts        110146126                       # Number of committed integer instructions.
system.switch_cpus0.commit.function_calls      2413416                       # Number of function calls committed.
system.switch_cpus0.commit.bw_lim_events      3687819                       # number cycles where commit BW limit reached
system.switch_cpus0.commit.bw_limited               0                       # number of insts not committed due to BW limits
system.switch_cpus0.rob.rob_reads           257712102                       # The number of ROB reads
system.switch_cpus0.rob.rob_writes          376946735                       # The number of ROB writes
system.switch_cpus0.timesIdled                  44335                       # Number of times that the entire CPU went into an idle state and unscheduled itself
system.switch_cpus0.idleCycles                3853024                       # Total number of cycles that the CPU has spent unscheduled due to idling
system.switch_cpus0.committedInsts          100000000                       # Number of Instructions Simulated
system.switch_cpus0.committedOps            122421920                       # Number of Ops (including micro ops) Simulated
system.switch_cpus0.committedInsts_total    100000000                       # Number of Instructions Simulated
system.switch_cpus0.cpi                      0.899350                       # CPI: Cycles Per Instruction
system.switch_cpus0.cpi_total                0.899350                       # CPI: Total CPI of All Threads
system.switch_cpus0.ipc                      1.111914                       # IPC: Instructions Per Cycle
system.switch_cpus0.ipc_total                1.111914                       # IPC: Total IPC of All Threads
system.switch_cpus0.int_regfile_reads       655823637                       # number of integer regfile reads
system.switch_cpus0.int_regfile_writes      197116235                       # number of integer regfile writes
system.switch_cpus0.misc_regfile_reads      189538076                       # number of misc regfile reads
system.switch_cpus0.misc_regfile_writes         32044                       # number of misc regfile writes
system.switch_cpus1.dtb.inst_hits                   0                       # ITB inst hits
system.switch_cpus1.dtb.inst_misses                 0                       # ITB inst misses
system.switch_cpus1.dtb.read_hits                   0                       # DTB read hits
system.switch_cpus1.dtb.read_misses                 0                       # DTB read misses
system.switch_cpus1.dtb.write_hits                  0                       # DTB write hits
system.switch_cpus1.dtb.write_misses                0                       # DTB write misses
system.switch_cpus1.dtb.flush_tlb                   0                       # Number of times complete TLB was flushed
system.switch_cpus1.dtb.flush_tlb_mva               0                       # Number of times TLB was flushed by MVA
system.switch_cpus1.dtb.flush_tlb_mva_asid            0                       # Number of times TLB was flushed by MVA & ASID
system.switch_cpus1.dtb.flush_tlb_asid              0                       # Number of times TLB was flushed by ASID
system.switch_cpus1.dtb.flush_entries               0                       # Number of entries that have been flushed from TLB
system.switch_cpus1.dtb.align_faults                0                       # Number of TLB faults due to alignment restrictions
system.switch_cpus1.dtb.prefetch_faults             0                       # Number of TLB faults due to prefetch
system.switch_cpus1.dtb.domain_faults               0                       # Number of TLB faults due to domain restrictions
system.switch_cpus1.dtb.perms_faults                0                       # Number of TLB faults due to permissions restrictions
system.switch_cpus1.dtb.read_accesses               0                       # DTB read accesses
system.switch_cpus1.dtb.write_accesses              0                       # DTB write accesses
system.switch_cpus1.dtb.inst_accesses               0                       # ITB inst accesses
system.switch_cpus1.dtb.hits                        0                       # DTB hits
system.switch_cpus1.dtb.misses                      0                       # DTB misses
system.switch_cpus1.dtb.accesses                    0                       # DTB accesses
system.switch_cpus1.itb.inst_hits                   0                       # ITB inst hits
system.switch_cpus1.itb.inst_misses                 0                       # ITB inst misses
system.switch_cpus1.itb.read_hits                   0                       # DTB read hits
system.switch_cpus1.itb.read_misses                 0                       # DTB read misses
system.switch_cpus1.itb.write_hits                  0                       # DTB write hits
system.switch_cpus1.itb.write_misses                0                       # DTB write misses
system.switch_cpus1.itb.flush_tlb                   0                       # Number of times complete TLB was flushed
system.switch_cpus1.itb.flush_tlb_mva               0                       # Number of times TLB was flushed by MVA
system.switch_cpus1.itb.flush_tlb_mva_asid            0                       # Number of times TLB was flushed by MVA & ASID
system.switch_cpus1.itb.flush_tlb_asid              0                       # Number of times TLB was flushed by ASID
system.switch_cpus1.itb.flush_entries               0                       # Number of entries that have been flushed from TLB
system.switch_cpus1.itb.align_faults                0                       # Number of TLB faults due to alignment restrictions
system.switch_cpus1.itb.prefetch_faults             0                       # Number of TLB faults due to prefetch
system.switch_cpus1.itb.domain_faults               0                       # Number of TLB faults due to domain restrictions
system.switch_cpus1.itb.perms_faults                0                       # Number of TLB faults due to permissions restrictions
system.switch_cpus1.itb.read_accesses               0                       # DTB read accesses
system.switch_cpus1.itb.write_accesses              0                       # DTB write accesses
system.switch_cpus1.itb.inst_accesses               0                       # ITB inst accesses
system.switch_cpus1.itb.hits                        0                       # DTB hits
system.switch_cpus1.itb.misses                      0                       # DTB misses
system.switch_cpus1.itb.accesses                    0                       # DTB accesses
system.cpu1.workload.num_syscalls                   0                       # Number of system calls
system.switch_cpus1.numCycles                89935011                       # number of cpu cycles simulated
system.switch_cpus1.numWorkItemsStarted             0                       # number of work items this cpu started
system.switch_cpus1.numWorkItemsCompleted            0                       # number of work items this cpu completed
system.switch_cpus1.BPredUnit.lookups        32420357                       # Number of BP lookups
system.switch_cpus1.BPredUnit.condPredicted     26430138                       # Number of conditional branches predicted
system.switch_cpus1.BPredUnit.condIncorrect      2164756                       # Number of conditional branches incorrect
system.switch_cpus1.BPredUnit.BTBLookups     13745970                       # Number of BTB lookups
system.switch_cpus1.BPredUnit.BTBHits        12680986                       # Number of BTB hits
system.switch_cpus1.BPredUnit.BTBCorrect            0                       # Number of correct BTB predictions (this stat may not work properly.
system.switch_cpus1.BPredUnit.usedRAS         3498947                       # Number of times the RAS was used to get a target.
system.switch_cpus1.BPredUnit.RASInCorrect        96091                       # Number of incorrect RAS predictions.
system.switch_cpus1.fetch.icacheStallCycles     32439595                       # Number of cycles fetch is stalled on an Icache miss
system.switch_cpus1.fetch.Insts             178045383                       # Number of instructions fetch has processed
system.switch_cpus1.fetch.Branches           32420357                       # Number of branches that fetch encountered
system.switch_cpus1.fetch.predictedBranches     16179933                       # Number of branches that fetch has predicted taken
system.switch_cpus1.fetch.Cycles             39568491                       # Number of cycles fetch has run and was not squashing or blocked
system.switch_cpus1.fetch.SquashCycles       11501445                       # Number of cycles fetch has spent squashing
system.switch_cpus1.fetch.BlockedCycles       5989645                       # Number of cycles fetch has spent blocked
system.switch_cpus1.fetch.PendingTrapStallCycles           20                       # Number of stall cycles due to pending traps
system.switch_cpus1.fetch.CacheLines         16017422                       # Number of cache lines fetched
system.switch_cpus1.fetch.IcacheSquashes      1052713                       # Number of outstanding Icache misses that were squashed
system.switch_cpus1.fetch.rateDist::samples     87307745                       # Number of instructions fetched each cycle (Total)
system.switch_cpus1.fetch.rateDist::mean     2.527722                       # Number of instructions fetched each cycle (Total)
system.switch_cpus1.fetch.rateDist::stdev     3.289857                       # Number of instructions fetched each cycle (Total)
system.switch_cpus1.fetch.rateDist::underflows            0      0.00%      0.00% # Number of instructions fetched each cycle (Total)
system.switch_cpus1.fetch.rateDist::0        47739254     54.68%     54.68% # Number of instructions fetched each cycle (Total)
system.switch_cpus1.fetch.rateDist::1         2618698      3.00%     57.68% # Number of instructions fetched each cycle (Total)
system.switch_cpus1.fetch.rateDist::2         4902707      5.62%     63.29% # Number of instructions fetched each cycle (Total)
system.switch_cpus1.fetch.rateDist::3         4873297      5.58%     68.88% # Number of instructions fetched each cycle (Total)
system.switch_cpus1.fetch.rateDist::4         3023148      3.46%     72.34% # Number of instructions fetched each cycle (Total)
system.switch_cpus1.fetch.rateDist::5         2408778      2.76%     75.10% # Number of instructions fetched each cycle (Total)
system.switch_cpus1.fetch.rateDist::6         1507325      1.73%     76.82% # Number of instructions fetched each cycle (Total)
system.switch_cpus1.fetch.rateDist::7         1410991      1.62%     78.44% # Number of instructions fetched each cycle (Total)
system.switch_cpus1.fetch.rateDist::8        18823547     21.56%    100.00% # Number of instructions fetched each cycle (Total)
system.switch_cpus1.fetch.rateDist::overflows            0      0.00%    100.00% # Number of instructions fetched each cycle (Total)
system.switch_cpus1.fetch.rateDist::min_value            0                       # Number of instructions fetched each cycle (Total)
system.switch_cpus1.fetch.rateDist::max_value            8                       # Number of instructions fetched each cycle (Total)
system.switch_cpus1.fetch.rateDist::total     87307745                       # Number of instructions fetched each cycle (Total)
system.switch_cpus1.fetch.branchRate         0.360486                       # Number of branch fetches per cycle
system.switch_cpus1.fetch.rate               1.979712                       # Number of inst fetches per cycle
system.switch_cpus1.decode.IdleCycles        33830000                       # Number of cycles decode is idle
system.switch_cpus1.decode.BlockedCycles      5926751                       # Number of cycles decode is blocked
system.switch_cpus1.decode.RunCycles         38007880                       # Number of cycles decode is running
system.switch_cpus1.decode.UnblockCycles       233355                       # Number of cycles decode is unblocking
system.switch_cpus1.decode.SquashCycles       9309752                       # Number of cycles decode is squashing
system.switch_cpus1.decode.BranchResolved      5484393                       # Number of times decode resolved a branch
system.switch_cpus1.decode.BranchMispred          260                       # Number of times decode detected a branch misprediction
system.switch_cpus1.decode.DecodedInsts     213648389                       # Number of instructions handled by decode
system.switch_cpus1.decode.SquashedInsts         1389                       # Number of squashed instructions handled by decode
system.switch_cpus1.rename.SquashCycles       9309752                       # Number of cycles rename is squashing
system.switch_cpus1.rename.IdleCycles        36288160                       # Number of cycles rename is idle
system.switch_cpus1.rename.BlockCycles        1045496                       # Number of cycles rename is blocking
system.switch_cpus1.rename.serializeStallCycles      1515417                       # count of cycles rename stalled for serializing inst
system.switch_cpus1.rename.RunCycles         35735892                       # Number of cycles rename is running
system.switch_cpus1.rename.UnblockCycles      3413022                       # Number of cycles rename is unblocking
system.switch_cpus1.rename.RenamedInsts     205988021                       # Number of instructions processed by rename
system.switch_cpus1.rename.ROBFullEvents           55                       # Number of times rename has blocked due to ROB full
system.switch_cpus1.rename.IQFullEvents       1420169                       # Number of times rename has blocked due to IQ full
system.switch_cpus1.rename.LSQFullEvents      1044688                       # Number of times rename has blocked due to LSQ full
system.switch_cpus1.rename.RenamedOperands    289209095                       # Number of destination operands rename has renamed
system.switch_cpus1.rename.RenameLookups    960977159                       # Number of register rename lookups that rename has made
system.switch_cpus1.rename.int_rename_lookups    960977159                       # Number of integer rename lookups
system.switch_cpus1.rename.CommittedMaps    178964288                       # Number of HB maps that are committed
system.switch_cpus1.rename.UndoneMaps       110244766                       # Number of HB maps that are undone due to squashing
system.switch_cpus1.rename.serializingInsts        36713                       # count of serializing insts renamed
system.switch_cpus1.rename.tempSerializingInsts        17623                       # count of temporary serializing insts renamed
system.switch_cpus1.rename.skidInsts          9495000                       # count of insts added to the skid buffer
system.switch_cpus1.memDep0.insertedLoads     19079251                       # Number of loads inserted to the mem dependence unit.
system.switch_cpus1.memDep0.insertedStores      9723451                       # Number of stores inserted to the mem dependence unit.
system.switch_cpus1.memDep0.conflictingLoads       122573                       # Number of conflicting loads.
system.switch_cpus1.memDep0.conflictingStores      3383814                       # Number of conflicting stores.
system.switch_cpus1.iq.iqInstsAdded         194237685                       # Number of instructions added to the IQ (excludes non-spec)
system.switch_cpus1.iq.iqNonSpecInstsAdded        35245                       # Number of non-speculative instructions added to the IQ
system.switch_cpus1.iq.iqInstsIssued        154738635                       # Number of instructions issued
system.switch_cpus1.iq.iqSquashedInstsIssued       302235                       # Number of squashed instructions issued
system.switch_cpus1.iq.iqSquashedInstsExamined     65658485                       # Number of squashed instructions iterated over during squash; mainly for profiling
system.switch_cpus1.iq.iqSquashedOperandsExamined    200854712                       # Number of squashed operands that are examined and possibly removed from graph
system.switch_cpus1.iq.iqSquashedNonSpecRemoved            1                       # Number of squashed non-spec instructions that were removed
system.switch_cpus1.iq.issued_per_cycle::samples     87307745                       # Number of insts issued each cycle
system.switch_cpus1.iq.issued_per_cycle::mean     1.772336                       # Number of insts issued each cycle
system.switch_cpus1.iq.issued_per_cycle::stdev     1.896212                       # Number of insts issued each cycle
system.switch_cpus1.iq.issued_per_cycle::underflows            0      0.00%      0.00% # Number of insts issued each cycle
system.switch_cpus1.iq.issued_per_cycle::0     30175319     34.56%     34.56% # Number of insts issued each cycle
system.switch_cpus1.iq.issued_per_cycle::1     18882664     21.63%     56.19% # Number of insts issued each cycle
system.switch_cpus1.iq.issued_per_cycle::2     12500706     14.32%     70.51% # Number of insts issued each cycle
system.switch_cpus1.iq.issued_per_cycle::3      8175274      9.36%     79.87% # Number of insts issued each cycle
system.switch_cpus1.iq.issued_per_cycle::4      8613777      9.87%     89.74% # Number of insts issued each cycle
system.switch_cpus1.iq.issued_per_cycle::5      4162679      4.77%     94.51% # Number of insts issued each cycle
system.switch_cpus1.iq.issued_per_cycle::6      3285327      3.76%     98.27% # Number of insts issued each cycle
system.switch_cpus1.iq.issued_per_cycle::7       747720      0.86%     99.12% # Number of insts issued each cycle
system.switch_cpus1.iq.issued_per_cycle::8       764279      0.88%    100.00% # Number of insts issued each cycle
system.switch_cpus1.iq.issued_per_cycle::overflows            0      0.00%    100.00% # Number of insts issued each cycle
system.switch_cpus1.iq.issued_per_cycle::min_value            0                       # Number of insts issued each cycle
system.switch_cpus1.iq.issued_per_cycle::max_value            8                       # Number of insts issued each cycle
system.switch_cpus1.iq.issued_per_cycle::total     87307745                       # Number of insts issued each cycle
system.switch_cpus1.iq.fu_full::No_OpClass            0      0.00%      0.00% # attempts to use FU when none available
system.switch_cpus1.iq.fu_full::IntAlu         963950     72.47%     72.47% # attempts to use FU when none available
system.switch_cpus1.iq.fu_full::IntMult             0      0.00%     72.47% # attempts to use FU when none available
system.switch_cpus1.iq.fu_full::IntDiv              0      0.00%     72.47% # attempts to use FU when none available
system.switch_cpus1.iq.fu_full::FloatAdd            0      0.00%     72.47% # attempts to use FU when none available
system.switch_cpus1.iq.fu_full::FloatCmp            0      0.00%     72.47% # attempts to use FU when none available
system.switch_cpus1.iq.fu_full::FloatCvt            0      0.00%     72.47% # attempts to use FU when none available
system.switch_cpus1.iq.fu_full::FloatMult            0      0.00%     72.47% # attempts to use FU when none available
system.switch_cpus1.iq.fu_full::FloatDiv            0      0.00%     72.47% # attempts to use FU when none available
system.switch_cpus1.iq.fu_full::FloatSqrt            0      0.00%     72.47% # attempts to use FU when none available
system.switch_cpus1.iq.fu_full::SimdAdd             0      0.00%     72.47% # attempts to use FU when none available
system.switch_cpus1.iq.fu_full::SimdAddAcc            0      0.00%     72.47% # attempts to use FU when none available
system.switch_cpus1.iq.fu_full::SimdAlu             0      0.00%     72.47% # attempts to use FU when none available
system.switch_cpus1.iq.fu_full::SimdCmp             0      0.00%     72.47% # attempts to use FU when none available
system.switch_cpus1.iq.fu_full::SimdCvt             0      0.00%     72.47% # attempts to use FU when none available
system.switch_cpus1.iq.fu_full::SimdMisc            0      0.00%     72.47% # attempts to use FU when none available
system.switch_cpus1.iq.fu_full::SimdMult            0      0.00%     72.47% # attempts to use FU when none available
system.switch_cpus1.iq.fu_full::SimdMultAcc            0      0.00%     72.47% # attempts to use FU when none available
system.switch_cpus1.iq.fu_full::SimdShift            0      0.00%     72.47% # attempts to use FU when none available
system.switch_cpus1.iq.fu_full::SimdShiftAcc            0      0.00%     72.47% # attempts to use FU when none available
system.switch_cpus1.iq.fu_full::SimdSqrt            0      0.00%     72.47% # attempts to use FU when none available
system.switch_cpus1.iq.fu_full::SimdFloatAdd            0      0.00%     72.47% # attempts to use FU when none available
system.switch_cpus1.iq.fu_full::SimdFloatAlu            0      0.00%     72.47% # attempts to use FU when none available
system.switch_cpus1.iq.fu_full::SimdFloatCmp            0      0.00%     72.47% # attempts to use FU when none available
system.switch_cpus1.iq.fu_full::SimdFloatCvt            0      0.00%     72.47% # attempts to use FU when none available
system.switch_cpus1.iq.fu_full::SimdFloatDiv            0      0.00%     72.47% # attempts to use FU when none available
system.switch_cpus1.iq.fu_full::SimdFloatMisc            0      0.00%     72.47% # attempts to use FU when none available
system.switch_cpus1.iq.fu_full::SimdFloatMult            0      0.00%     72.47% # attempts to use FU when none available
system.switch_cpus1.iq.fu_full::SimdFloatMultAcc            0      0.00%     72.47% # attempts to use FU when none available
system.switch_cpus1.iq.fu_full::SimdFloatSqrt            0      0.00%     72.47% # attempts to use FU when none available
system.switch_cpus1.iq.fu_full::MemRead        184223     13.85%     86.32% # attempts to use FU when none available
system.switch_cpus1.iq.fu_full::MemWrite       181908     13.68%    100.00% # attempts to use FU when none available
system.switch_cpus1.iq.fu_full::IprAccess            0      0.00%    100.00% # attempts to use FU when none available
system.switch_cpus1.iq.fu_full::InstPrefetch            0      0.00%    100.00% # attempts to use FU when none available
system.switch_cpus1.iq.FU_type_0::No_OpClass            0      0.00%      0.00% # Type of FU issued
system.switch_cpus1.iq.FU_type_0::IntAlu    129432815     83.65%     83.65% # Type of FU issued
system.switch_cpus1.iq.FU_type_0::IntMult      2078756      1.34%     84.99% # Type of FU issued
system.switch_cpus1.iq.FU_type_0::IntDiv            0      0.00%     84.99% # Type of FU issued
system.switch_cpus1.iq.FU_type_0::FloatAdd            0      0.00%     84.99% # Type of FU issued
system.switch_cpus1.iq.FU_type_0::FloatCmp            0      0.00%     84.99% # Type of FU issued
system.switch_cpus1.iq.FU_type_0::FloatCvt            0      0.00%     84.99% # Type of FU issued
system.switch_cpus1.iq.FU_type_0::FloatMult            0      0.00%     84.99% # Type of FU issued
system.switch_cpus1.iq.FU_type_0::FloatDiv            0      0.00%     84.99% # Type of FU issued
system.switch_cpus1.iq.FU_type_0::FloatSqrt            0      0.00%     84.99% # Type of FU issued
system.switch_cpus1.iq.FU_type_0::SimdAdd            0      0.00%     84.99% # Type of FU issued
system.switch_cpus1.iq.FU_type_0::SimdAddAcc            0      0.00%     84.99% # Type of FU issued
system.switch_cpus1.iq.FU_type_0::SimdAlu            0      0.00%     84.99% # Type of FU issued
system.switch_cpus1.iq.FU_type_0::SimdCmp            0      0.00%     84.99% # Type of FU issued
system.switch_cpus1.iq.FU_type_0::SimdCvt            0      0.00%     84.99% # Type of FU issued
system.switch_cpus1.iq.FU_type_0::SimdMisc            0      0.00%     84.99% # Type of FU issued
system.switch_cpus1.iq.FU_type_0::SimdMult            0      0.00%     84.99% # Type of FU issued
system.switch_cpus1.iq.FU_type_0::SimdMultAcc            0      0.00%     84.99% # Type of FU issued
system.switch_cpus1.iq.FU_type_0::SimdShift            0      0.00%     84.99% # Type of FU issued
system.switch_cpus1.iq.FU_type_0::SimdShiftAcc            0      0.00%     84.99% # Type of FU issued
system.switch_cpus1.iq.FU_type_0::SimdSqrt            0      0.00%     84.99% # Type of FU issued
system.switch_cpus1.iq.FU_type_0::SimdFloatAdd            0      0.00%     84.99% # Type of FU issued
system.switch_cpus1.iq.FU_type_0::SimdFloatAlu            0      0.00%     84.99% # Type of FU issued
system.switch_cpus1.iq.FU_type_0::SimdFloatCmp            0      0.00%     84.99% # Type of FU issued
system.switch_cpus1.iq.FU_type_0::SimdFloatCvt            0      0.00%     84.99% # Type of FU issued
system.switch_cpus1.iq.FU_type_0::SimdFloatDiv            0      0.00%     84.99% # Type of FU issued
system.switch_cpus1.iq.FU_type_0::SimdFloatMisc        17621      0.01%     85.00% # Type of FU issued
system.switch_cpus1.iq.FU_type_0::SimdFloatMult            0      0.00%     85.00% # Type of FU issued
system.switch_cpus1.iq.FU_type_0::SimdFloatMultAcc            0      0.00%     85.00% # Type of FU issued
system.switch_cpus1.iq.FU_type_0::SimdFloatSqrt            0      0.00%     85.00% # Type of FU issued
system.switch_cpus1.iq.FU_type_0::MemRead     14971157      9.68%     94.68% # Type of FU issued
system.switch_cpus1.iq.FU_type_0::MemWrite      8238286      5.32%    100.00% # Type of FU issued
system.switch_cpus1.iq.FU_type_0::IprAccess            0      0.00%    100.00% # Type of FU issued
system.switch_cpus1.iq.FU_type_0::InstPrefetch            0      0.00%    100.00% # Type of FU issued
system.switch_cpus1.iq.FU_type_0::total     154738635                       # Type of FU issued
system.switch_cpus1.iq.rate                  1.720561                       # Inst issue rate
system.switch_cpus1.iq.fu_busy_cnt            1330081                       # FU busy when requested
system.switch_cpus1.iq.fu_busy_rate          0.008596                       # FU busy rate (busy events/executed inst)
system.switch_cpus1.iq.int_inst_queue_reads    398417329                       # Number of integer instruction queue reads
system.switch_cpus1.iq.int_inst_queue_writes    259931763                       # Number of integer instruction queue writes
system.switch_cpus1.iq.int_inst_queue_wakeup_accesses    151205750                       # Number of integer instruction queue wakeup accesses
system.switch_cpus1.iq.fp_inst_queue_reads            0                       # Number of floating instruction queue reads
system.switch_cpus1.iq.fp_inst_queue_writes            0                       # Number of floating instruction queue writes
system.switch_cpus1.iq.fp_inst_queue_wakeup_accesses            0                       # Number of floating instruction queue wakeup accesses
system.switch_cpus1.iq.int_alu_accesses     156068716                       # Number of integer alu accesses
system.switch_cpus1.iq.fp_alu_accesses              0                       # Number of floating point alu accesses
system.switch_cpus1.iew.lsq.thread0.forwLoads       482117                       # Number of loads that had data forwarded from stores
system.switch_cpus1.iew.lsq.thread0.invAddrLoads            0                       # Number of loads ignored due to an invalid address
system.switch_cpus1.iew.lsq.thread0.squashedLoads      7412688                       # Number of loads squashed
system.switch_cpus1.iew.lsq.thread0.ignoredResponses         2025                       # Number of memory responses ignored because the instruction is squashed
system.switch_cpus1.iew.lsq.thread0.memOrderViolation          348                       # Number of memory ordering violations
system.switch_cpus1.iew.lsq.thread0.squashedStores      2332844                       # Number of stores squashed
system.switch_cpus1.iew.lsq.thread0.invAddrSwpfs            0                       # Number of software prefetches ignored due to an invalid address
system.switch_cpus1.iew.lsq.thread0.blockedLoads            0                       # Number of blocked loads due to partial load-store forwarding
system.switch_cpus1.iew.lsq.thread0.rescheduledLoads            0                       # Number of loads that were rescheduled
system.switch_cpus1.iew.lsq.thread0.cacheBlocked            0                       # Number of times an access to memory failed due to the cache being blocked
system.switch_cpus1.iew.iewIdleCycles               0                       # Number of cycles IEW is idle
system.switch_cpus1.iew.iewSquashCycles       9309752                       # Number of cycles IEW is squashing
system.switch_cpus1.iew.iewBlockCycles         536380                       # Number of cycles IEW is blocking
system.switch_cpus1.iew.iewUnblockCycles        92408                       # Number of cycles IEW is unblocking
system.switch_cpus1.iew.iewDispatchedInsts    194272933                       # Number of instructions dispatched to IQ
system.switch_cpus1.iew.iewDispSquashedInsts       386494                       # Number of squashed instructions skipped by dispatch
system.switch_cpus1.iew.iewDispLoadInsts     19079251                       # Number of dispatched load instructions
system.switch_cpus1.iew.iewDispStoreInsts      9723451                       # Number of dispatched store instructions
system.switch_cpus1.iew.iewDispNonSpecInsts        17623                       # Number of dispatched non-speculative instructions
system.switch_cpus1.iew.iewIQFullEvents         72432                       # Number of times the IQ has become full, causing a stall
system.switch_cpus1.iew.iewLSQFullEvents            0                       # Number of times the LSQ has become full, causing a stall
system.switch_cpus1.iew.memOrderViolationEvents          348                       # Number of memory order violations
system.switch_cpus1.iew.predictedTakenIncorrect      1354231                       # Number of branches that were predicted taken incorrectly
system.switch_cpus1.iew.predictedNotTakenIncorrect      1202978                       # Number of branches that were predicted not taken incorrectly
system.switch_cpus1.iew.branchMispredicts      2557209                       # Number of branch mispredicts detected at execute
system.switch_cpus1.iew.iewExecutedInsts    152695484                       # Number of executed instructions
system.switch_cpus1.iew.iewExecLoadInsts     14284371                       # Number of load instructions executed
system.switch_cpus1.iew.iewExecSquashedInsts      2043149                       # Number of squashed instructions skipped in execute
system.switch_cpus1.iew.exec_swp                    0                       # number of swp insts executed
system.switch_cpus1.iew.exec_nop                    3                       # number of nop insts executed
system.switch_cpus1.iew.exec_refs            22329260                       # number of memory reference insts executed
system.switch_cpus1.iew.exec_branches        21649136                       # Number of branches executed
system.switch_cpus1.iew.exec_stores           8044889                       # Number of stores executed
system.switch_cpus1.iew.exec_rate            1.697843                       # Inst execution rate
system.switch_cpus1.iew.wb_sent             151253089                       # cumulative count of insts sent to commit
system.switch_cpus1.iew.wb_count            151205750                       # cumulative count of insts written-back
system.switch_cpus1.iew.wb_producers         96381178                       # num instructions producing a value
system.switch_cpus1.iew.wb_consumers        276598104                       # num instructions consuming a value
system.switch_cpus1.iew.wb_penalized                0                       # number of instrctions required to write to 'other' IQ
system.switch_cpus1.iew.wb_rate              1.681278                       # insts written-back per cycle
system.switch_cpus1.iew.wb_fanout            0.348452                       # average fanout of values written-back
system.switch_cpus1.iew.wb_penalized_rate            0                       # fraction of instructions written-back that wrote to 'other' IQ
system.switch_cpus1.commit.commitCommittedInsts    104228165                       # The number of committed instructions
system.switch_cpus1.commit.commitCommittedOps    128335045                       # The number of committed instructions
system.switch_cpus1.commit.commitSquashedInsts     65938376                       # The number of squashed insts skipped by commit
system.switch_cpus1.commit.commitNonSpecStalls        35244                       # The number of times commit has been forced to stall to communicate backwards
system.switch_cpus1.commit.branchMispredicts      2190949                       # The number of times a branch was mispredicted
[...]
system.cpu3.icache.ReadReq_avg_miss_latency::total 269955.764706                       # average ReadReq miss latency
system.cpu3.icache.demand_avg_miss_latency::switch_cpus3.inst 269955.764706                       # average overall miss latency
system.cpu3.icache.demand_avg_miss_latency::total 269955.764706                       # average overall miss latency
system.cpu3.icache.overall_avg_miss_latency::switch_cpus3.inst 269955.764706                       # average overall miss latency
system.cpu3.icache.overall_avg_miss_latency::total 269955.764706                       # average overall miss latency
system.cpu3.icache.blocked_cycles::no_mshrs            0                       # number of cycles access was blocked
system.cpu3.icache.blocked_cycles::no_targets            0                       # number of cycles access was blocked
system.cpu3.icache.blocked::no_mshrs                0                       # number of cycles access was blocked
system.cpu3.icache.blocked::no_targets              0                       # number of cycles access was blocked
system.cpu3.icache.avg_blocked_cycles::no_mshrs          nan                       # average number of cycles each access was blocked
system.cpu3.icache.avg_blocked_cycles::no_targets          nan                       # average number of cycles each access was blocked
system.cpu3.icache.fast_writes                      0                       # number of fast writes performed
system.cpu3.icache.cache_copies                     0                       # number of cache copies performed
system.cpu3.icache.ReadReq_mshr_hits::switch_cpus3.inst            4                       # number of ReadReq MSHR hits
system.cpu3.icache.ReadReq_mshr_hits::total            4                       # number of ReadReq MSHR hits
system.cpu3.icache.demand_mshr_hits::switch_cpus3.inst            4                       # number of demand (read+write) MSHR hits
system.cpu3.icache.demand_mshr_hits::total            4                       # number of demand (read+write) MSHR hits
system.cpu3.icache.overall_mshr_hits::switch_cpus3.inst            4                       # number of overall MSHR hits
system.cpu3.icache.overall_mshr_hits::total            4                       # number of overall MSHR hits
system.cpu3.icache.ReadReq_mshr_misses::switch_cpus3.inst           13                       # number of ReadReq MSHR misses
system.cpu3.icache.ReadReq_mshr_misses::total           13                       # number of ReadReq MSHR misses
system.cpu3.icache.demand_mshr_misses::switch_cpus3.inst           13                       # number of demand (read+write) MSHR misses
system.cpu3.icache.demand_mshr_misses::total           13                       # number of demand (read+write) MSHR misses
system.cpu3.icache.overall_mshr_misses::switch_cpus3.inst           13                       # number of overall MSHR misses
system.cpu3.icache.overall_mshr_misses::total           13                       # number of overall MSHR misses
system.cpu3.icache.ReadReq_mshr_miss_latency::switch_cpus3.inst      3264395                       # number of ReadReq MSHR miss cycles
system.cpu3.icache.ReadReq_mshr_miss_latency::total      3264395                       # number of ReadReq MSHR miss cycles
system.cpu3.icache.demand_mshr_miss_latency::switch_cpus3.inst      3264395                       # number of demand (read+write) MSHR miss cycles
system.cpu3.icache.demand_mshr_miss_latency::total      3264395                       # number of demand (read+write) MSHR miss cycles
system.cpu3.icache.overall_mshr_miss_latency::switch_cpus3.inst      3264395                       # number of overall MSHR miss cycles
system.cpu3.icache.overall_mshr_miss_latency::total      3264395                       # number of overall MSHR miss cycles
system.cpu3.icache.ReadReq_mshr_miss_rate::switch_cpus3.inst     0.000001                       # mshr miss rate for ReadReq accesses
system.cpu3.icache.ReadReq_mshr_miss_rate::total     0.000001                       # mshr miss rate for ReadReq accesses
system.cpu3.icache.demand_mshr_miss_rate::switch_cpus3.inst     0.000001                       # mshr miss rate for demand accesses
system.cpu3.icache.demand_mshr_miss_rate::total     0.000001                       # mshr miss rate for demand accesses
system.cpu3.icache.overall_mshr_miss_rate::switch_cpus3.inst     0.000001                       # mshr miss rate for overall accesses
system.cpu3.icache.overall_mshr_miss_rate::total     0.000001                       # mshr miss rate for overall accesses
system.cpu3.icache.ReadReq_avg_mshr_miss_latency::switch_cpus3.inst 251107.307692                       # average ReadReq mshr miss latency
system.cpu3.icache.ReadReq_avg_mshr_miss_latency::total 251107.307692                       # average ReadReq mshr miss latency
system.cpu3.icache.demand_avg_mshr_miss_latency::switch_cpus3.inst 251107.307692                       # average overall mshr miss latency
system.cpu3.icache.demand_avg_mshr_miss_latency::total 251107.307692                       # average overall mshr miss latency
system.cpu3.icache.overall_avg_mshr_miss_latency::switch_cpus3.inst 251107.307692                       # average overall mshr miss latency
system.cpu3.icache.overall_avg_mshr_miss_latency::total 251107.307692                       # average overall mshr miss latency
system.cpu3.icache.no_allocate_misses               0                       # Number of misses that were no-allocate
system.cpu3.dcache.replacements                 53354                       # number of replacements
system.cpu3.dcache.tagsinuse                      256                       # Cycle average of tags in use
system.cpu3.dcache.total_refs               174502039                       # Total number of references to valid blocks.
system.cpu3.dcache.sampled_refs                 53610                       # Sample count of references to valid blocks.
system.cpu3.dcache.avg_refs               3255.027775                       # Average number of references to valid blocks.
system.cpu3.dcache.warmup_cycle                     0                       # Cycle when the warmup percentage was hit.
system.cpu3.dcache.occ_blocks::switch_cpus3.data   233.236898                       # Average occupied blocks per requestor
system.cpu3.dcache.occ_blocks::cpu3.data    22.763102                       # Average occupied blocks per requestor
system.cpu3.dcache.occ_percent::switch_cpus3.data     0.911082                       # Average percentage of cache occupancy
system.cpu3.dcache.occ_percent::cpu3.data     0.088918                       # Average percentage of cache occupancy
system.cpu3.dcache.occ_percent::total               1                       # Average percentage of cache occupancy
system.cpu3.dcache.ReadReq_hits::switch_cpus3.data     10659755                       # number of ReadReq hits
system.cpu3.dcache.ReadReq_hits::total       10659755                       # number of ReadReq hits
system.cpu3.dcache.WriteReq_hits::switch_cpus3.data      7338120                       # number of WriteReq hits
system.cpu3.dcache.WriteReq_hits::total       7338120                       # number of WriteReq hits
system.cpu3.dcache.LoadLockedReq_hits::switch_cpus3.data        17977                       # number of LoadLockedReq hits
system.cpu3.dcache.LoadLockedReq_hits::total        17977                       # number of LoadLockedReq hits
system.cpu3.dcache.StoreCondReq_hits::switch_cpus3.data        17026                       # number of StoreCondReq hits
system.cpu3.dcache.StoreCondReq_hits::total        17026                       # number of StoreCondReq hits
system.cpu3.dcache.demand_hits::switch_cpus3.data     17997875                       # number of demand (read+write) hits
system.cpu3.dcache.demand_hits::total        17997875                       # number of demand (read+write) hits
system.cpu3.dcache.overall_hits::switch_cpus3.data     17997875                       # number of overall hits
system.cpu3.dcache.overall_hits::total       17997875                       # number of overall hits
system.cpu3.dcache.ReadReq_misses::switch_cpus3.data       134265                       # number of ReadReq misses
system.cpu3.dcache.ReadReq_misses::total       134265                       # number of ReadReq misses
system.cpu3.dcache.WriteReq_misses::switch_cpus3.data         3798                       # number of WriteReq misses
system.cpu3.dcache.WriteReq_misses::total         3798                       # number of WriteReq misses
system.cpu3.dcache.demand_misses::switch_cpus3.data       138063                       # number of demand (read+write) misses
system.cpu3.dcache.demand_misses::total        138063                       # number of demand (read+write) misses
system.cpu3.dcache.overall_misses::switch_cpus3.data       138063                       # number of overall misses
system.cpu3.dcache.overall_misses::total       138063                       # number of overall misses
system.cpu3.dcache.ReadReq_miss_latency::switch_cpus3.data   8929826476                       # number of ReadReq miss cycles
system.cpu3.dcache.ReadReq_miss_latency::total   8929826476                       # number of ReadReq miss cycles
system.cpu3.dcache.WriteReq_miss_latency::switch_cpus3.data    494708411                       # number of WriteReq miss cycles
system.cpu3.dcache.WriteReq_miss_latency::total    494708411                       # number of WriteReq miss cycles
system.cpu3.dcache.demand_miss_latency::switch_cpus3.data   9424534887                       # number of demand (read+write) miss cycles
system.cpu3.dcache.demand_miss_latency::total   9424534887                       # number of demand (read+write) miss cycles
system.cpu3.dcache.overall_miss_latency::switch_cpus3.data   9424534887                       # number of overall miss cycles
system.cpu3.dcache.overall_miss_latency::total   9424534887                       # number of overall miss cycles
system.cpu3.dcache.ReadReq_accesses::switch_cpus3.data     10794020                       # number of ReadReq accesses(hits+misses)
system.cpu3.dcache.ReadReq_accesses::total     10794020                       # number of ReadReq accesses(hits+misses)
system.cpu3.dcache.WriteReq_accesses::switch_cpus3.data      7341918                       # number of WriteReq accesses(hits+misses)
system.cpu3.dcache.WriteReq_accesses::total      7341918                       # number of WriteReq accesses(hits+misses)
system.cpu3.dcache.LoadLockedReq_accesses::switch_cpus3.data        17977                       # number of LoadLockedReq accesses(hits+misses)
system.cpu3.dcache.LoadLockedReq_accesses::total        17977                       # number of LoadLockedReq accesses(hits+misses)
system.cpu3.dcache.StoreCondReq_accesses::switch_cpus3.data        17026                       # number of StoreCondReq accesses(hits+misses)
system.cpu3.dcache.StoreCondReq_accesses::total        17026                       # number of StoreCondReq accesses(hits+misses)
system.cpu3.dcache.demand_accesses::switch_cpus3.data     18135938                       # number of demand (read+write) accesses
system.cpu3.dcache.demand_accesses::total     18135938                       # number of demand (read+write) accesses
system.cpu3.dcache.overall_accesses::switch_cpus3.data     18135938                       # number of overall (read+write) accesses
system.cpu3.dcache.overall_accesses::total     18135938                       # number of overall (read+write) accesses
system.cpu3.dcache.ReadReq_miss_rate::switch_cpus3.data     0.012439                       # miss rate for ReadReq accesses
system.cpu3.dcache.ReadReq_miss_rate::total     0.012439                       # miss rate for ReadReq accesses
system.cpu3.dcache.WriteReq_miss_rate::switch_cpus3.data     0.000517                       # miss rate for WriteReq accesses
system.cpu3.dcache.WriteReq_miss_rate::total     0.000517                       # miss rate for WriteReq accesses
system.cpu3.dcache.demand_miss_rate::switch_cpus3.data     0.007613                       # miss rate for demand accesses
system.cpu3.dcache.demand_miss_rate::total     0.007613                       # miss rate for demand accesses
system.cpu3.dcache.overall_miss_rate::switch_cpus3.data     0.007613                       # miss rate for overall accesses
system.cpu3.dcache.overall_miss_rate::total     0.007613                       # miss rate for overall accesses
system.cpu3.dcache.ReadReq_avg_miss_latency::switch_cpus3.data 66508.967162                       # average ReadReq miss latency
system.cpu3.dcache.ReadReq_avg_miss_latency::total 66508.967162                       # average ReadReq miss latency
system.cpu3.dcache.WriteReq_avg_miss_latency::switch_cpus3.data 130254.979200                       # average WriteReq miss latency
system.cpu3.dcache.WriteReq_avg_miss_latency::total 130254.979200                       # average WriteReq miss latency
system.cpu3.dcache.demand_avg_miss_latency::switch_cpus3.data 68262.567719                       # average overall miss latency
system.cpu3.dcache.demand_avg_miss_latency::total 68262.567719                       # average overall miss latency
system.cpu3.dcache.overall_avg_miss_latency::switch_cpus3.data 68262.567719                       # average overall miss latency
system.cpu3.dcache.overall_avg_miss_latency::total 68262.567719                       # average overall miss latency
system.cpu3.dcache.blocked_cycles::no_mshrs            0                       # number of cycles access was blocked
system.cpu3.dcache.blocked_cycles::no_targets      2535964                       # number of cycles access was blocked
system.cpu3.dcache.blocked::no_mshrs                0                       # number of cycles access was blocked
system.cpu3.dcache.blocked::no_targets             23                       # number of cycles access was blocked
system.cpu3.dcache.avg_blocked_cycles::no_mshrs          nan                       # average number of cycles each access was blocked
system.cpu3.dcache.avg_blocked_cycles::no_targets 110259.304348                       # average number of cycles each access was blocked
system.cpu3.dcache.fast_writes                      0                       # number of fast writes performed
system.cpu3.dcache.cache_copies                     0                       # number of cache copies performed
system.cpu3.dcache.writebacks::writebacks        23897                       # number of writebacks
system.cpu3.dcache.writebacks::total            23897                       # number of writebacks
system.cpu3.dcache.ReadReq_mshr_hits::switch_cpus3.data        80915                       # number of ReadReq MSHR hits
system.cpu3.dcache.ReadReq_mshr_hits::total        80915                       # number of ReadReq MSHR hits
system.cpu3.dcache.WriteReq_mshr_hits::switch_cpus3.data         3794                       # number of WriteReq MSHR hits
system.cpu3.dcache.WriteReq_mshr_hits::total         3794                       # number of WriteReq MSHR hits
system.cpu3.dcache.demand_mshr_hits::switch_cpus3.data        84709                       # number of demand (read+write) MSHR hits
system.cpu3.dcache.demand_mshr_hits::total        84709                       # number of demand (read+write) MSHR hits
system.cpu3.dcache.overall_mshr_hits::switch_cpus3.data        84709                       # number of overall MSHR hits
system.cpu3.dcache.overall_mshr_hits::total        84709                       # number of overall MSHR hits
system.cpu3.dcache.ReadReq_mshr_misses::switch_cpus3.data        53350                       # number of ReadReq MSHR misses
system.cpu3.dcache.ReadReq_mshr_misses::total        53350                       # number of ReadReq MSHR misses
system.cpu3.dcache.WriteReq_mshr_misses::switch_cpus3.data            4                       # number of WriteReq MSHR misses
system.cpu3.dcache.WriteReq_mshr_misses::total            4                       # number of WriteReq MSHR misses
system.cpu3.dcache.demand_mshr_misses::switch_cpus3.data        53354                       # number of demand (read+write) MSHR misses
system.cpu3.dcache.demand_mshr_misses::total        53354                       # number of demand (read+write) MSHR misses
system.cpu3.dcache.overall_mshr_misses::switch_cpus3.data        53354                       # number of overall MSHR misses
system.cpu3.dcache.overall_mshr_misses::total        53354                       # number of overall MSHR misses
system.cpu3.dcache.ReadReq_mshr_miss_latency::switch_cpus3.data   2251503998                       # number of ReadReq MSHR miss cycles
system.cpu3.dcache.ReadReq_mshr_miss_latency::total   2251503998                       # number of ReadReq MSHR miss cycles
system.cpu3.dcache.WriteReq_mshr_miss_latency::switch_cpus3.data       557992                       # number of WriteReq MSHR miss cycles
system.cpu3.dcache.WriteReq_mshr_miss_latency::total       557992                       # number of WriteReq MSHR miss cycles
system.cpu3.dcache.demand_mshr_miss_latency::switch_cpus3.data   2252061990                       # number of demand (read+write) MSHR miss cycles
system.cpu3.dcache.demand_mshr_miss_latency::total   2252061990                       # number of demand (read+write) MSHR miss cycles
system.cpu3.dcache.overall_mshr_miss_latency::switch_cpus3.data   2252061990                       # number of overall MSHR miss cycles
system.cpu3.dcache.overall_mshr_miss_latency::total   2252061990                       # number of overall MSHR miss cycles
system.cpu3.dcache.ReadReq_mshr_miss_rate::switch_cpus3.data     0.004943                       # mshr miss rate for ReadReq accesses
system.cpu3.dcache.ReadReq_mshr_miss_rate::total     0.004943                       # mshr miss rate for ReadReq accesses
system.cpu3.dcache.WriteReq_mshr_miss_rate::switch_cpus3.data     0.000001                       # mshr miss rate for WriteReq accesses
system.cpu3.dcache.WriteReq_mshr_miss_rate::total     0.000001                       # mshr miss rate for WriteReq accesses
system.cpu3.dcache.demand_mshr_miss_rate::switch_cpus3.data     0.002942                       # mshr miss rate for demand accesses
system.cpu3.dcache.demand_mshr_miss_rate::total     0.002942                       # mshr miss rate for demand accesses
system.cpu3.dcache.overall_mshr_miss_rate::switch_cpus3.data     0.002942                       # mshr miss rate for overall accesses
system.cpu3.dcache.overall_mshr_miss_rate::total     0.002942                       # mshr miss rate for overall accesses
system.cpu3.dcache.ReadReq_avg_mshr_miss_latency::switch_cpus3.data 42202.511678                       # average ReadReq mshr miss latency
system.cpu3.dcache.ReadReq_avg_mshr_miss_latency::total 42202.511678                       # average ReadReq mshr miss latency
system.cpu3.dcache.WriteReq_avg_mshr_miss_latency::switch_cpus3.data       139498                       # average WriteReq mshr miss latency
system.cpu3.dcache.WriteReq_avg_mshr_miss_latency::total       139498                       # average WriteReq mshr miss latency
system.cpu3.dcache.demand_avg_mshr_miss_latency::switch_cpus3.data 42209.806013                       # average overall mshr miss latency
system.cpu3.dcache.demand_avg_mshr_miss_latency::total 42209.806013                       # average overall mshr miss latency
system.cpu3.dcache.overall_avg_mshr_miss_latency::switch_cpus3.data 42209.806013                       # average overall mshr miss latency
system.cpu3.dcache.overall_avg_mshr_miss_latency::total 42209.806013                       # average overall mshr miss latency
system.cpu3.dcache.no_allocate_misses               0                       # Number of misses that were no-allocate

---------- End Simulation Statistics   ----------
