
---------- Begin Simulation Statistics ----------
sim_seconds                                  0.035765                       # Number of seconds simulated
sim_ticks                                 35764939914                       # Number of ticks simulated
final_tick                               565329319851                       # Number of ticks from beginning of simulation (restored from checkpoints and never reset)
sim_freq                                 1000000000000                       # Frequency of simulated ticks
host_inst_rate                                  54016                       # Simulator instruction rate (inst/s)
host_op_rate                                    68296                       # Simulator op (including micro ops) rate (op/s)
host_tick_rate                                 876141                       # Simulator tick rate (ticks/s)
host_mem_usage                               16894188                       # Number of bytes of host memory used
host_seconds                                 40820.99                       # Real time elapsed on the host
sim_insts                                  2204978362                       # Number of instructions simulated
sim_ops                                    2787906812                       # Number of ops (including micro ops) simulated
system.physmem.bytes_read::switch_cpus0.inst         1280                       # Number of bytes read from this memory
system.physmem.bytes_read::switch_cpus0.data      1596032                       # Number of bytes read from this memory
system.physmem.bytes_read::switch_cpus1.inst         1792                       # Number of bytes read from this memory
system.physmem.bytes_read::switch_cpus1.data       405376                       # Number of bytes read from this memory
system.physmem.bytes_read::total              2004480                       # Number of bytes read from this memory
system.physmem.bytes_inst_read::switch_cpus0.inst         1280                       # Number of instructions bytes read from this memory
system.physmem.bytes_inst_read::switch_cpus1.inst         1792                       # Number of instructions bytes read from this memory
system.physmem.bytes_inst_read::total            3072                       # Number of instructions bytes read from this memory
system.physmem.bytes_written::writebacks       847744                       # Number of bytes written to this memory
system.physmem.bytes_written::total            847744                       # Number of bytes written to this memory
system.physmem.num_reads::switch_cpus0.inst           10                       # Number of read requests responded to by this memory
system.physmem.num_reads::switch_cpus0.data        12469                       # Number of read requests responded to by this memory
system.physmem.num_reads::switch_cpus1.inst           14                       # Number of read requests responded to by this memory
system.physmem.num_reads::switch_cpus1.data         3167                       # Number of read requests responded to by this memory
system.physmem.num_reads::total                 15660                       # Number of read requests responded to by this memory
system.physmem.num_writes::writebacks            6623                       # Number of write requests responded to by this memory
system.physmem.num_writes::functional               0                       # Number of write requests responded to by this memory
system.physmem.num_writes::interrupt                0                       # Number of write requests responded to by this memory
system.physmem.num_writes::switch_cpus0.dtb.walker            0                       # Number of write requests responded to by this memory
system.physmem.num_writes::switch_cpus0.itb.walker            0                       # Number of write requests responded to by this memory
system.physmem.num_writes::switch_cpus0.inst            0                       # Number of write requests responded to by this memory
system.physmem.num_writes::switch_cpus0.data            0                       # Number of write requests responded to by this memory
system.physmem.num_writes::switch_cpus1.dtb.walker            0                       # Number of write requests responded to by this memory
system.physmem.num_writes::switch_cpus1.itb.walker            0                       # Number of write requests responded to by this memory
system.physmem.num_writes::switch_cpus1.inst            0                       # Number of write requests responded to by this memory
system.physmem.num_writes::switch_cpus1.data            0                       # Number of write requests responded to by this memory
system.physmem.num_writes::cpu0.dtb.walker            0                       # Number of write requests responded to by this memory
system.physmem.num_writes::cpu0.itb.walker            0                       # Number of write requests responded to by this memory
system.physmem.num_writes::cpu0.inst                0                       # Number of write requests responded to by this memory
system.physmem.num_writes::cpu0.data                0                       # Number of write requests responded to by this memory
system.physmem.num_writes::cpu1.dtb.walker            0                       # Number of write requests responded to by this memory
system.physmem.num_writes::cpu1.itb.walker            0                       # Number of write requests responded to by this memory
system.physmem.num_writes::cpu1.inst                0                       # Number of write requests responded to by this memory
system.physmem.num_writes::cpu1.data                0                       # Number of write requests responded to by this memory
system.physmem.num_writes::total                 6623                       # Number of write requests responded to by this memory
system.physmem.bw_read::switch_cpus0.inst        35789                       # Total read bandwidth from this memory (bytes/s)
system.physmem.bw_read::switch_cpus0.data     44625603                       # Total read bandwidth from this memory (bytes/s)
system.physmem.bw_read::switch_cpus1.inst        50105                       # Total read bandwidth from this memory (bytes/s)
system.physmem.bw_read::switch_cpus1.data     11334452                       # Total read bandwidth from this memory (bytes/s)
system.physmem.bw_read::total                56045949                       # Total read bandwidth from this memory (bytes/s)
system.physmem.bw_inst_read::switch_cpus0.inst        35789                       # Instruction read bandwidth from this memory (bytes/s)
system.physmem.bw_inst_read::switch_cpus1.inst        50105                       # Instruction read bandwidth from this memory (bytes/s)
system.physmem.bw_inst_read::total              85894                       # Instruction read bandwidth from this memory (bytes/s)
system.physmem.bw_write::writebacks          23703213                       # Write bandwidth from this memory (bytes/s)
system.physmem.bw_write::total               23703213                       # Write bandwidth from this memory (bytes/s)
system.physmem.bw_total::writebacks          23703213                       # Total bandwidth to/from this memory (bytes/s)
system.physmem.bw_total::switch_cpus0.inst        35789                       # Total bandwidth to/from this memory (bytes/s)
system.physmem.bw_total::switch_cpus0.data     44625603                       # Total bandwidth to/from this memory (bytes/s)
system.physmem.bw_total::switch_cpus1.inst        50105                       # Total bandwidth to/from this memory (bytes/s)
system.physmem.bw_total::switch_cpus1.data     11334452                       # Total bandwidth to/from this memory (bytes/s)
system.physmem.bw_total::total               79749162                       # Total bandwidth to/from this memory (bytes/s)
system.switch_cpus0.dtb.inst_hits                   0                       # ITB inst hits
system.switch_cpus0.dtb.inst_misses                 0                       # ITB inst misses
system.switch_cpus0.dtb.read_hits                   0                       # DTB read hits
system.switch_cpus0.dtb.read_misses                 0                       # DTB read misses
system.switch_cpus0.dtb.write_hits                  0                       # DTB write hits
system.switch_cpus0.dtb.write_misses                0                       # DTB write misses
system.switch_cpus0.dtb.flush_tlb                   0                       # Number of times complete TLB was flushed
system.switch_cpus0.dtb.flush_tlb_mva               0                       # Number of times TLB was flushed by MVA
system.switch_cpus0.dtb.flush_tlb_mva_asid            0                       # Number of times TLB was flushed by MVA & ASID
system.switch_cpus0.dtb.flush_tlb_asid              0                       # Number of times TLB was flushed by ASID
system.switch_cpus0.dtb.flush_entries               0                       # Number of entries that have been flushed from TLB
system.switch_cpus0.dtb.align_faults                0                       # Number of TLB faults due to alignment restrictions
system.switch_cpus0.dtb.prefetch_faults             0                       # Number of TLB faults due to prefetch
system.switch_cpus0.dtb.domain_faults               0                       # Number of TLB faults due to domain restrictions
system.switch_cpus0.dtb.perms_faults                0                       # Number of TLB faults due to permissions restrictions
system.switch_cpus0.dtb.read_accesses               0                       # DTB read accesses
system.switch_cpus0.dtb.write_accesses              0                       # DTB write accesses
system.switch_cpus0.dtb.inst_accesses               0                       # ITB inst accesses
system.switch_cpus0.dtb.hits                        0                       # DTB hits
system.switch_cpus0.dtb.misses                      0                       # DTB misses
system.switch_cpus0.dtb.accesses                    0                       # DTB accesses
system.switch_cpus0.itb.inst_hits                   0                       # ITB inst hits
system.switch_cpus0.itb.inst_misses                 0                       # ITB inst misses
system.switch_cpus0.itb.read_hits                   0                       # DTB read hits
system.switch_cpus0.itb.read_misses                 0                       # DTB read misses
system.switch_cpus0.itb.write_hits                  0                       # DTB write hits
system.switch_cpus0.itb.write_misses                0                       # DTB write misses
system.switch_cpus0.itb.flush_tlb                   0                       # Number of times complete TLB was flushed
system.switch_cpus0.itb.flush_tlb_mva               0                       # Number of times TLB was flushed by MVA
system.switch_cpus0.itb.flush_tlb_mva_asid            0                       # Number of times TLB was flushed by MVA & ASID
system.switch_cpus0.itb.flush_tlb_asid              0                       # Number of times TLB was flushed by ASID
system.switch_cpus0.itb.flush_entries               0                       # Number of entries that have been flushed from TLB
system.switch_cpus0.itb.align_faults                0                       # Number of TLB faults due to alignment restrictions
system.switch_cpus0.itb.prefetch_faults             0                       # Number of TLB faults due to prefetch
system.switch_cpus0.itb.domain_faults               0                       # Number of TLB faults due to domain restrictions
system.switch_cpus0.itb.perms_faults                0                       # Number of TLB faults due to permissions restrictions
system.switch_cpus0.itb.read_accesses               0                       # DTB read accesses
system.switch_cpus0.itb.write_accesses              0                       # DTB write accesses
system.switch_cpus0.itb.inst_accesses               0                       # ITB inst accesses
system.switch_cpus0.itb.hits                        0                       # DTB hits
system.switch_cpus0.itb.misses                      0                       # DTB misses
system.switch_cpus0.itb.accesses                    0                       # DTB accesses
system.cpu0.workload.num_syscalls                   0                       # Number of system calls
system.switch_cpus0.numCycles                85767243                       # number of cpu cycles simulated
system.switch_cpus0.numWorkItemsStarted             0                       # number of work items this cpu started
system.switch_cpus0.numWorkItemsCompleted            0                       # number of work items this cpu completed
system.switch_cpus0.BPredUnit.lookups        30987719                       # Number of BP lookups
system.switch_cpus0.BPredUnit.condPredicted     25418306                       # Number of conditional branches predicted
system.switch_cpus0.BPredUnit.condIncorrect      2014909                       # Number of conditional branches incorrect
system.switch_cpus0.BPredUnit.BTBLookups     13202631                       # Number of BTB lookups
system.switch_cpus0.BPredUnit.BTBHits        12099049                       # Number of BTB hits
system.switch_cpus0.BPredUnit.BTBCorrect            0                       # Number of correct BTB predictions (this stat may not work properly.
system.switch_cpus0.BPredUnit.usedRAS         3163812                       # Number of times the RAS was used to get a target.
system.switch_cpus0.BPredUnit.RASInCorrect        87313                       # Number of incorrect RAS predictions.
system.switch_cpus0.fetch.icacheStallCycles     32024362                       # Number of cycles fetch is stalled on an Icache miss
system.switch_cpus0.fetch.Insts             170121357                       # Number of instructions fetch has processed
system.switch_cpus0.fetch.Branches           30987719                       # Number of branches that fetch encountered
system.switch_cpus0.fetch.predictedBranches     15262861                       # Number of branches that fetch has predicted taken
system.switch_cpus0.fetch.Cycles             36577141                       # Number of cycles fetch has run and was not squashing or blocked
system.switch_cpus0.fetch.SquashCycles       10803558                       # Number of cycles fetch has spent squashing
system.switch_cpus0.fetch.BlockedCycles       6815972                       # Number of cycles fetch has spent blocked
system.switch_cpus0.fetch.PendingTrapStallCycles            1                       # Number of stall cycles due to pending traps
system.switch_cpus0.fetch.CacheLines         15669712                       # Number of cache lines fetched
system.switch_cpus0.fetch.IcacheSquashes       807060                       # Number of outstanding Icache misses that were squashed
system.switch_cpus0.fetch.rateDist::samples     84173550                       # Number of instructions fetched each cycle (Total)
system.switch_cpus0.fetch.rateDist::mean     2.484112                       # Number of instructions fetched each cycle (Total)
system.switch_cpus0.fetch.rateDist::stdev     3.331956                       # Number of instructions fetched each cycle (Total)
system.switch_cpus0.fetch.rateDist::underflows            0      0.00%      0.00% # Number of instructions fetched each cycle (Total)
system.switch_cpus0.fetch.rateDist::0        47596409     56.55%     56.55% # Number of instructions fetched each cycle (Total)
system.switch_cpus0.fetch.rateDist::1         3647986      4.33%     60.88% # Number of instructions fetched each cycle (Total)
system.switch_cpus0.fetch.rateDist::2         3197727      3.80%     64.68% # Number of instructions fetched each cycle (Total)
system.switch_cpus0.fetch.rateDist::3         3439623      4.09%     68.76% # Number of instructions fetched each cycle (Total)
system.switch_cpus0.fetch.rateDist::4         3025365      3.59%     72.36% # Number of instructions fetched each cycle (Total)
system.switch_cpus0.fetch.rateDist::5         1579853      1.88%     74.24% # Number of instructions fetched each cycle (Total)
system.switch_cpus0.fetch.rateDist::6         1028293      1.22%     75.46% # Number of instructions fetched each cycle (Total)
system.switch_cpus0.fetch.rateDist::7         2702577      3.21%     78.67% # Number of instructions fetched each cycle (Total)
system.switch_cpus0.fetch.rateDist::8        17955717     21.33%    100.00% # Number of instructions fetched each cycle (Total)
system.switch_cpus0.fetch.rateDist::overflows            0      0.00%    100.00% # Number of instructions fetched each cycle (Total)
system.switch_cpus0.fetch.rateDist::min_value            0                       # Number of instructions fetched each cycle (Total)
system.switch_cpus0.fetch.rateDist::max_value            8                       # Number of instructions fetched each cycle (Total)
system.switch_cpus0.fetch.rateDist::total     84173550                       # Number of instructions fetched each cycle (Total)
system.switch_cpus0.fetch.branchRate         0.361300                       # Number of branch fetches per cycle
system.switch_cpus0.fetch.rate               1.983524                       # Number of inst fetches per cycle
system.switch_cpus0.decode.IdleCycles        33691628                       # Number of cycles decode is idle
system.switch_cpus0.decode.BlockedCycles      6396101                       # Number of cycles decode is blocked
system.switch_cpus0.decode.RunCycles         34792856                       # Number of cycles decode is running
system.switch_cpus0.decode.UnblockCycles       543331                       # Number of cycles decode is unblocking
system.switch_cpus0.decode.SquashCycles       8749625                       # Number of cycles decode is squashing
system.switch_cpus0.decode.BranchResolved      5075887                       # Number of times decode resolved a branch
system.switch_cpus0.decode.BranchMispred         6489                       # Number of times decode detected a branch misprediction
system.switch_cpus0.decode.DecodedInsts     201790679                       # Number of instructions handled by decode
system.switch_cpus0.decode.SquashedInsts        51041                       # Number of squashed instructions handled by decode
system.switch_cpus0.rename.SquashCycles       8749625                       # Number of cycles rename is squashing
system.switch_cpus0.rename.IdleCycles        35351964                       # Number of cycles rename is idle
system.switch_cpus0.rename.BlockCycles        2851841                       # Number of cycles rename is blocking
system.switch_cpus0.rename.serializeStallCycles       853377                       # count of cycles rename stalled for serializing inst
system.switch_cpus0.rename.RunCycles         33641474                       # Number of cycles rename is running
system.switch_cpus0.rename.UnblockCycles      2725261                       # Number of cycles rename is unblocking
system.switch_cpus0.rename.RenamedInsts     194979581                       # Number of instructions processed by rename
system.switch_cpus0.rename.ROBFullEvents        12370                       # Number of times rename has blocked due to ROB full
system.switch_cpus0.rename.IQFullEvents       1700456                       # Number of times rename has blocked due to IQ full
system.switch_cpus0.rename.LSQFullEvents       749240                       # Number of times rename has blocked due to LSQ full
system.switch_cpus0.rename.FullRegisterEvents           41                       # Number of times there has been no free registers
system.switch_cpus0.rename.RenamedOperands    270735742                       # Number of destination operands rename has renamed
system.switch_cpus0.rename.RenameLookups    909212032                       # Number of register rename lookups that rename has made
system.switch_cpus0.rename.int_rename_lookups    909212032                       # Number of integer rename lookups
system.switch_cpus0.rename.CommittedMaps    168259218                       # Number of HB maps that are committed
system.switch_cpus0.rename.UndoneMaps       102476478                       # Number of HB maps that are undone due to squashing
system.switch_cpus0.rename.serializingInsts        34004                       # count of serializing insts renamed
system.switch_cpus0.rename.tempSerializingInsts        17981                       # count of temporary serializing insts renamed
system.switch_cpus0.rename.skidInsts          7242189                       # count of insts added to the skid buffer
system.switch_cpus0.memDep0.insertedLoads     19246864                       # Number of loads inserted to the mem dependence unit.
system.switch_cpus0.memDep0.insertedStores     10029190                       # Number of stores inserted to the mem dependence unit.
system.switch_cpus0.memDep0.conflictingLoads       239612                       # Number of conflicting loads.
system.switch_cpus0.memDep0.conflictingStores      3184893                       # Number of conflicting stores.
system.switch_cpus0.iq.iqInstsAdded         183887004                       # Number of instructions added to the IQ (excludes non-spec)
system.switch_cpus0.iq.iqNonSpecInstsAdded        33986                       # Number of non-speculative instructions added to the IQ
system.switch_cpus0.iq.iqInstsIssued        147785081                       # Number of instructions issued
system.switch_cpus0.iq.iqSquashedInstsIssued       282919                       # Number of squashed instructions issued
system.switch_cpus0.iq.iqSquashedInstsExamined     60970537                       # Number of squashed instructions iterated over during squash; mainly for profiling
system.switch_cpus0.iq.iqSquashedOperandsExamined    186286075                       # Number of squashed operands that are examined and possibly removed from graph
system.switch_cpus0.iq.iqSquashedNonSpecRemoved         1942                       # Number of squashed non-spec instructions that were removed
system.switch_cpus0.iq.issued_per_cycle::samples     84173550                       # Number of insts issued each cycle
system.switch_cpus0.iq.issued_per_cycle::mean     1.755719                       # Number of insts issued each cycle
system.switch_cpus0.iq.issued_per_cycle::stdev     1.909133                       # Number of insts issued each cycle
system.switch_cpus0.iq.issued_per_cycle::underflows            0      0.00%      0.00% # Number of insts issued each cycle
system.switch_cpus0.iq.issued_per_cycle::0     29968525     35.60%     35.60% # Number of insts issued each cycle
system.switch_cpus0.iq.issued_per_cycle::1     17848560     21.20%     56.81% # Number of insts issued each cycle
system.switch_cpus0.iq.issued_per_cycle::2     11961651     14.21%     71.02% # Number of insts issued each cycle
system.switch_cpus0.iq.issued_per_cycle::3      7625079      9.06%     80.08% # Number of insts issued each cycle
system.switch_cpus0.iq.issued_per_cycle::4      7549299      8.97%     89.05% # Number of insts issued each cycle
system.switch_cpus0.iq.issued_per_cycle::5      4437241      5.27%     94.32% # Number of insts issued each cycle
system.switch_cpus0.iq.issued_per_cycle::6      3381748      4.02%     98.34% # Number of insts issued each cycle
system.switch_cpus0.iq.issued_per_cycle::7       747483      0.89%     99.22% # Number of insts issued each cycle
system.switch_cpus0.iq.issued_per_cycle::8       653964      0.78%    100.00% # Number of insts issued each cycle
system.switch_cpus0.iq.issued_per_cycle::overflows            0      0.00%    100.00% # Number of insts issued each cycle
system.switch_cpus0.iq.issued_per_cycle::min_value            0                       # Number of insts issued each cycle
system.switch_cpus0.iq.issued_per_cycle::max_value            8                       # Number of insts issued each cycle
system.switch_cpus0.iq.issued_per_cycle::total     84173550                       # Number of insts issued each cycle
system.switch_cpus0.iq.fu_full::No_OpClass            0      0.00%      0.00% # attempts to use FU when none available
system.switch_cpus0.iq.fu_full::IntAlu        1083520     69.89%     69.89% # attempts to use FU when none available
system.switch_cpus0.iq.fu_full::IntMult            41      0.00%     69.89% # attempts to use FU when none available
system.switch_cpus0.iq.fu_full::IntDiv              0      0.00%     69.89% # attempts to use FU when none available
system.switch_cpus0.iq.fu_full::FloatAdd            0      0.00%     69.89% # attempts to use FU when none available
system.switch_cpus0.iq.fu_full::FloatCmp            0      0.00%     69.89% # attempts to use FU when none available
system.switch_cpus0.iq.fu_full::FloatCvt            0      0.00%     69.89% # attempts to use FU when none available
system.switch_cpus0.iq.fu_full::FloatMult            0      0.00%     69.89% # attempts to use FU when none available
system.switch_cpus0.iq.fu_full::FloatDiv            0      0.00%     69.89% # attempts to use FU when none available
system.switch_cpus0.iq.fu_full::FloatSqrt            0      0.00%     69.89% # attempts to use FU when none available
system.switch_cpus0.iq.fu_full::SimdAdd             0      0.00%     69.89% # attempts to use FU when none available
system.switch_cpus0.iq.fu_full::SimdAddAcc            0      0.00%     69.89% # attempts to use FU when none available
system.switch_cpus0.iq.fu_full::SimdAlu             0      0.00%     69.89% # attempts to use FU when none available
system.switch_cpus0.iq.fu_full::SimdCmp             0      0.00%     69.89% # attempts to use FU when none available
system.switch_cpus0.iq.fu_full::SimdCvt             0      0.00%     69.89% # attempts to use FU when none available
system.switch_cpus0.iq.fu_full::SimdMisc            0      0.00%     69.89% # attempts to use FU when none available
system.switch_cpus0.iq.fu_full::SimdMult            0      0.00%     69.89% # attempts to use FU when none available
system.switch_cpus0.iq.fu_full::SimdMultAcc            0      0.00%     69.89% # attempts to use FU when none available
system.switch_cpus0.iq.fu_full::SimdShift            0      0.00%     69.89% # attempts to use FU when none available
system.switch_cpus0.iq.fu_full::SimdShiftAcc            0      0.00%     69.89% # attempts to use FU when none available
system.switch_cpus0.iq.fu_full::SimdSqrt            0      0.00%     69.89% # attempts to use FU when none available
system.switch_cpus0.iq.fu_full::SimdFloatAdd            0      0.00%     69.89% # attempts to use FU when none available
system.switch_cpus0.iq.fu_full::SimdFloatAlu            0      0.00%     69.89% # attempts to use FU when none available
system.switch_cpus0.iq.fu_full::SimdFloatCmp            0      0.00%     69.89% # attempts to use FU when none available
system.switch_cpus0.iq.fu_full::SimdFloatCvt            0      0.00%     69.89% # attempts to use FU when none available
system.switch_cpus0.iq.fu_full::SimdFloatDiv            0      0.00%     69.89% # attempts to use FU when none available
system.switch_cpus0.iq.fu_full::SimdFloatMisc            0      0.00%     69.89% # attempts to use FU when none available
system.switch_cpus0.iq.fu_full::SimdFloatMult            0      0.00%     69.89% # attempts to use FU when none available
system.switch_cpus0.iq.fu_full::SimdFloatMultAcc            0      0.00%     69.89% # attempts to use FU when none available
system.switch_cpus0.iq.fu_full::SimdFloatSqrt            0      0.00%     69.89% # attempts to use FU when none available
system.switch_cpus0.iq.fu_full::MemRead        205216     13.24%     83.13% # attempts to use FU when none available
system.switch_cpus0.iq.fu_full::MemWrite       261520     16.87%    100.00% # attempts to use FU when none available
system.switch_cpus0.iq.fu_full::IprAccess            0      0.00%    100.00% # attempts to use FU when none available
system.switch_cpus0.iq.fu_full::InstPrefetch            0      0.00%    100.00% # attempts to use FU when none available
system.switch_cpus0.iq.FU_type_0::No_OpClass            0      0.00%      0.00% # Type of FU issued
system.switch_cpus0.iq.FU_type_0::IntAlu    121578350     82.27%     82.27% # Type of FU issued
system.switch_cpus0.iq.FU_type_0::IntMult      2014436      1.36%     83.63% # Type of FU issued
system.switch_cpus0.iq.FU_type_0::IntDiv            0      0.00%     83.63% # Type of FU issued
system.switch_cpus0.iq.FU_type_0::FloatAdd            0      0.00%     83.63% # Type of FU issued
system.switch_cpus0.iq.FU_type_0::FloatCmp            0      0.00%     83.63% # Type of FU issued
system.switch_cpus0.iq.FU_type_0::FloatCvt            0      0.00%     83.63% # Type of FU issued
system.switch_cpus0.iq.FU_type_0::FloatMult            0      0.00%     83.63% # Type of FU issued
system.switch_cpus0.iq.FU_type_0::FloatDiv            0      0.00%     83.63% # Type of FU issued
system.switch_cpus0.iq.FU_type_0::FloatSqrt            0      0.00%     83.63% # Type of FU issued
system.switch_cpus0.iq.FU_type_0::SimdAdd            0      0.00%     83.63% # Type of FU issued
system.switch_cpus0.iq.FU_type_0::SimdAddAcc            0      0.00%     83.63% # Type of FU issued
system.switch_cpus0.iq.FU_type_0::SimdAlu            0      0.00%     83.63% # Type of FU issued
system.switch_cpus0.iq.FU_type_0::SimdCmp            0      0.00%     83.63% # Type of FU issued
system.switch_cpus0.iq.FU_type_0::SimdCvt            0      0.00%     83.63% # Type of FU issued
system.switch_cpus0.iq.FU_type_0::SimdMisc            0      0.00%     83.63% # Type of FU issued
system.switch_cpus0.iq.FU_type_0::SimdMult            0      0.00%     83.63% # Type of FU issued
system.switch_cpus0.iq.FU_type_0::SimdMultAcc            0      0.00%     83.63% # Type of FU issued
system.switch_cpus0.iq.FU_type_0::SimdShift            0      0.00%     83.63% # Type of FU issued
system.switch_cpus0.iq.FU_type_0::SimdShiftAcc            0      0.00%     83.63% # Type of FU issued
system.switch_cpus0.iq.FU_type_0::SimdSqrt            0      0.00%     83.63% # Type of FU issued
system.switch_cpus0.iq.FU_type_0::SimdFloatAdd            0      0.00%     83.63% # Type of FU issued
system.switch_cpus0.iq.FU_type_0::SimdFloatAlu            0      0.00%     83.63% # Type of FU issued
system.switch_cpus0.iq.FU_type_0::SimdFloatCmp            0      0.00%     83.63% # Type of FU issued
system.switch_cpus0.iq.FU_type_0::SimdFloatCvt            0      0.00%     83.63% # Type of FU issued
system.switch_cpus0.iq.FU_type_0::SimdFloatDiv            0      0.00%     83.63% # Type of FU issued
system.switch_cpus0.iq.FU_type_0::SimdFloatMisc        16022      0.01%     83.64% # Type of FU issued
system.switch_cpus0.iq.FU_type_0::SimdFloatMult            0      0.00%     83.64% # Type of FU issued
system.switch_cpus0.iq.FU_type_0::SimdFloatMultAcc            0      0.00%     83.64% # Type of FU issued
system.switch_cpus0.iq.FU_type_0::SimdFloatSqrt            0      0.00%     83.64% # Type of FU issued
system.switch_cpus0.iq.FU_type_0::MemRead     15738937     10.65%     94.29% # Type of FU issued
system.switch_cpus0.iq.FU_type_0::MemWrite      8437336      5.71%    100.00% # Type of FU issued
system.switch_cpus0.iq.FU_type_0::IprAccess            0      0.00%    100.00% # Type of FU issued
system.switch_cpus0.iq.FU_type_0::InstPrefetch            0      0.00%    100.00% # Type of FU issued
system.switch_cpus0.iq.FU_type_0::total     147785081                       # Type of FU issued
system.switch_cpus0.iq.rate                  1.723095                       # Inst issue rate
system.switch_cpus0.iq.fu_busy_cnt            1550297                       # FU busy when requested
system.switch_cpus0.iq.fu_busy_rate          0.010490                       # FU busy rate (busy events/executed inst)
system.switch_cpus0.iq.int_inst_queue_reads    381576924                       # Number of integer instruction queue reads
system.switch_cpus0.iq.int_inst_queue_writes    244892587                       # Number of integer instruction queue writes
system.switch_cpus0.iq.int_inst_queue_wakeup_accesses    143637396                       # Number of integer instruction queue wakeup accesses
system.switch_cpus0.iq.fp_inst_queue_reads            0                       # Number of floating instruction queue reads
system.switch_cpus0.iq.fp_inst_queue_writes            0                       # Number of floating instruction queue writes
system.switch_cpus0.iq.fp_inst_queue_wakeup_accesses            0                       # Number of floating instruction queue wakeup accesses
system.switch_cpus0.iq.int_alu_accesses     149335378                       # Number of integer alu accesses
system.switch_cpus0.iq.fp_alu_accesses              0                       # Number of floating point alu accesses
system.switch_cpus0.iew.lsq.thread0.forwLoads       263140                       # Number of loads that had data forwarded from stores
system.switch_cpus0.iew.lsq.thread0.invAddrLoads            0                       # Number of loads ignored due to an invalid address
system.switch_cpus0.iew.lsq.thread0.squashedLoads      7034735                       # Number of loads squashed
system.switch_cpus0.iew.lsq.thread0.ignoredResponses          463                       # Number of memory responses ignored because the instruction is squashed
system.switch_cpus0.iew.lsq.thread0.memOrderViolation         1076                       # Number of memory ordering violations
system.switch_cpus0.iew.lsq.thread0.squashedStores      2287517                       # Number of stores squashed
system.switch_cpus0.iew.lsq.thread0.invAddrSwpfs            0                       # Number of software prefetches ignored due to an invalid address
system.switch_cpus0.iew.lsq.thread0.blockedLoads            0                       # Number of blocked loads due to partial load-store forwarding
system.switch_cpus0.iew.lsq.thread0.rescheduledLoads          576                       # Number of loads that were rescheduled
system.switch_cpus0.iew.lsq.thread0.cacheBlocked            0                       # Number of times an access to memory failed due to the cache being blocked
system.switch_cpus0.iew.iewIdleCycles               0                       # Number of cycles IEW is idle
system.switch_cpus0.iew.iewSquashCycles       8749625                       # Number of cycles IEW is squashing
system.switch_cpus0.iew.iewBlockCycles        2093745                       # Number of cycles IEW is blocking
system.switch_cpus0.iew.iewUnblockCycles       159340                       # Number of cycles IEW is unblocking
system.switch_cpus0.iew.iewDispatchedInsts    183920990                       # Number of instructions dispatched to IQ
system.switch_cpus0.iew.iewDispSquashedInsts       311487                       # Number of squashed instructions skipped by dispatch
system.switch_cpus0.iew.iewDispLoadInsts     19246864                       # Number of dispatched load instructions
system.switch_cpus0.iew.iewDispStoreInsts     10029190                       # Number of dispatched store instructions
system.switch_cpus0.iew.iewDispNonSpecInsts        17964                       # Number of dispatched non-speculative instructions
system.switch_cpus0.iew.iewIQFullEvents        114565                       # Number of times the IQ has become full, causing a stall
system.switch_cpus0.iew.iewLSQFullEvents         6661                       # Number of times the LSQ has become full, causing a stall
system.switch_cpus0.iew.memOrderViolationEvents         1076                       # Number of memory order violations
system.switch_cpus0.iew.predictedTakenIncorrect      1231300                       # Number of branches that were predicted taken incorrectly
system.switch_cpus0.iew.predictedNotTakenIncorrect      1129284                       # Number of branches that were predicted not taken incorrectly
system.switch_cpus0.iew.branchMispredicts      2360584                       # Number of branch mispredicts detected at execute
system.switch_cpus0.iew.iewExecutedInsts    145203241                       # Number of executed instructions
system.switch_cpus0.iew.iewExecLoadInsts     14796460                       # Number of load instructions executed
system.switch_cpus0.iew.iewExecSquashedInsts      2581836                       # Number of squashed instructions skipped in execute
system.switch_cpus0.iew.exec_swp                    0                       # number of swp insts executed
system.switch_cpus0.iew.exec_nop                    0                       # number of nop insts executed
system.switch_cpus0.iew.exec_refs            22992764                       # number of memory reference insts executed
system.switch_cpus0.iew.exec_branches        20585474                       # Number of branches executed
system.switch_cpus0.iew.exec_stores           8196304                       # Number of stores executed
system.switch_cpus0.iew.exec_rate            1.692992                       # Inst execution rate
system.switch_cpus0.iew.wb_sent             143782719                       # cumulative count of insts sent to commit
system.switch_cpus0.iew.wb_count            143637396                       # cumulative count of insts written-back
system.switch_cpus0.iew.wb_producers         93706711                       # num instructions producing a value
system.switch_cpus0.iew.wb_consumers        261690224                       # num instructions consuming a value
system.switch_cpus0.iew.wb_penalized                0                       # number of instrctions required to write to 'other' IQ
system.switch_cpus0.iew.wb_rate              1.674735                       # insts written-back per cycle
system.switch_cpus0.iew.wb_fanout            0.358083                       # average fanout of values written-back
system.switch_cpus0.iew.wb_penalized_rate            0                       # fraction of instructions written-back that wrote to 'other' IQ
system.switch_cpus0.commit.commitCommittedInsts    100000000                       # The number of committed instructions
system.switch_cpus0.commit.commitCommittedOps    122421920                       # The number of committed instructions
system.switch_cpus0.commit.commitSquashedInsts     61502374                       # The number of squashed insts skipped by commit
system.switch_cpus0.commit.commitNonSpecStalls        32044                       # The number of times commit has been forced to stall to communicate backwards
system.switch_cpus0.commit.branchMispredicts      2040289                       # The number of times a branch was mispredicted
system.switch_cpus0.commit.committed_per_cycle::samples     75423925                       # Number of insts commited each cycle
system.switch_cpus0.commit.committed_per_cycle::mean     1.623118                       # Number of insts commited each cycle
system.switch_cpus0.commit.committed_per_cycle::stdev     2.171102                       # Number of insts commited each cycle
system.switch_cpus0.commit.committed_per_cycle::underflows            0      0.00%      0.00% # Number of insts commited each cycle
system.switch_cpus0.commit.committed_per_cycle::0     30114958     39.93%     39.93% # Number of insts commited each cycle
system.switch_cpus0.commit.committed_per_cycle::1     20451843     27.12%     67.04% # Number of insts commited each cycle
system.switch_cpus0.commit.committed_per_cycle::2      8378852     11.11%     78.15% # Number of insts commited each cycle
system.switch_cpus0.commit.committed_per_cycle::3      4292009      5.69%     83.84% # Number of insts commited each cycle
system.switch_cpus0.commit.committed_per_cycle::4      3680529      4.88%     88.72% # Number of insts commited each cycle
system.switch_cpus0.commit.committed_per_cycle::5      1809991      2.40%     91.12% # Number of insts commited each cycle
system.switch_cpus0.commit.committed_per_cycle::6      1996796      2.65%     93.77% # Number of insts commited each cycle
system.switch_cpus0.commit.committed_per_cycle::7      1008077      1.34%     95.11% # Number of insts commited each cycle
system.switch_cpus0.commit.committed_per_cycle::8      3690870      4.89%    100.00% # Number of insts commited each cycle
system.switch_cpus0.commit.committed_per_cycle::overflows            0      0.00%    100.00% # Number of insts commited each cycle
system.switch_cpus0.commit.committed_per_cycle::min_value            0                       # Number of insts commited each cycle
system.switch_cpus0.commit.committed_per_cycle::max_value            8                       # Number of insts commited each cycle
system.switch_cpus0.commit.committed_per_cycle::total     75423925                       # Number of insts commited each cycle
system.switch_cpus0.commit.committedInsts    100000000                       # Number of instructions committed
system.switch_cpus0.commit.committedOps     122421920                       # Number of ops (including micro ops) committed
system.switch_cpus0.commit.swp_count                0                       # Number of s/w prefetches committed
system.switch_cpus0.commit.refs              19953799                       # Number of memory references committed
system.switch_cpus0.commit.loads             12212129                       # Number of loads committed
system.switch_cpus0.commit.membars              16022                       # Number of memory barriers committed
system.switch_cpus0.commit.branches          17573934                       # Number of branches committed
system.switch_cpus0.commit.fp_insts                 0                       # Number of committed floating point instructions.
system.switch_cpus0.commit.int_insts        110146126                       # Number of committed integer instructions.
system.switch_cpus0.commit.function_calls      2413416                       # Number of function calls committed.
system.switch_cpus0.commit.bw_lim_events      3690870                       # number cycles where commit BW limit reached
system.switch_cpus0.commit.bw_limited               0                       # number of insts not committed due to BW limits
system.switch_cpus0.rob.rob_reads           255657349                       # The number of ROB reads
system.switch_cpus0.rob.rob_writes          376606556                       # The number of ROB writes
system.switch_cpus0.timesIdled                  40466                       # Number of times that the entire CPU went into an idle state and unscheduled itself
system.switch_cpus0.idleCycles                1593693                       # Total number of cycles that the CPU has spent unscheduled due to idling
system.switch_cpus0.committedInsts          100000000                       # Number of Instructions Simulated
system.switch_cpus0.committedOps            122421920                       # Number of Ops (including micro ops) Simulated
system.switch_cpus0.committedInsts_total    100000000                       # Number of Instructions Simulated
system.switch_cpus0.cpi                      0.857672                       # CPI: Cycles Per Instruction
system.switch_cpus0.cpi_total                0.857672                       # CPI: Total CPI of All Threads
system.switch_cpus0.ipc                      1.165946                       # IPC: Instructions Per Cycle
system.switch_cpus0.ipc_total                1.165946                       # IPC: Total IPC of All Threads
system.switch_cpus0.int_regfile_reads       655606310                       # number of integer regfile reads
system.switch_cpus0.int_regfile_writes      197007987                       # number of integer regfile writes
system.switch_cpus0.misc_regfile_reads      189246513                       # number of misc regfile reads
system.switch_cpus0.misc_regfile_writes         32044                       # number of misc regfile writes
system.switch_cpus1.dtb.inst_hits                   0                       # ITB inst hits
system.switch_cpus1.dtb.inst_misses                 0                       # ITB inst misses
system.switch_cpus1.dtb.read_hits                   0                       # DTB read hits
system.switch_cpus1.dtb.read_misses                 0                       # DTB read misses
system.switch_cpus1.dtb.write_hits                  0                       # DTB write hits
system.switch_cpus1.dtb.write_misses                0                       # DTB write misses
system.switch_cpus1.dtb.flush_tlb                   0                       # Number of times complete TLB was flushed
system.switch_cpus1.dtb.flush_tlb_mva               0                       # Number of times TLB was flushed by MVA
system.switch_cpus1.dtb.flush_tlb_mva_asid            0                       # Number of times TLB was flushed by MVA & ASID
system.switch_cpus1.dtb.flush_tlb_asid              0                       # Number of times TLB was flushed by ASID
system.switch_cpus1.dtb.flush_entries               0                       # Number of entries that have been flushed from TLB
system.switch_cpus1.dtb.align_faults                0                       # Number of TLB faults due to alignment restrictions
system.switch_cpus1.dtb.prefetch_faults             0                       # Number of TLB faults due to prefetch
system.switch_cpus1.dtb.domain_faults               0                       # Number of TLB faults due to domain restrictions
system.switch_cpus1.dtb.perms_faults                0                       # Number of TLB faults due to permissions restrictions
system.switch_cpus1.dtb.read_accesses               0                       # DTB read accesses
system.switch_cpus1.dtb.write_accesses              0                       # DTB write accesses
system.switch_cpus1.dtb.inst_accesses               0                       # ITB inst accesses
system.switch_cpus1.dtb.hits                        0                       # DTB hits
system.switch_cpus1.dtb.misses                      0                       # DTB misses
system.switch_cpus1.dtb.accesses                    0                       # DTB accesses
system.switch_cpus1.itb.inst_hits                   0                       # ITB inst hits
system.switch_cpus1.itb.inst_misses                 0                       # ITB inst misses
system.switch_cpus1.itb.read_hits                   0                       # DTB read hits
system.switch_cpus1.itb.read_misses                 0                       # DTB read misses
system.switch_cpus1.itb.write_hits                  0                       # DTB write hits
system.switch_cpus1.itb.write_misses                0                       # DTB write misses
system.switch_cpus1.itb.flush_tlb                   0                       # Number of times complete TLB was flushed
system.switch_cpus1.itb.flush_tlb_mva               0                       # Number of times TLB was flushed by MVA
system.switch_cpus1.itb.flush_tlb_mva_asid            0                       # Number of times TLB was flushed by MVA & ASID
system.switch_cpus1.itb.flush_tlb_asid              0                       # Number of times TLB was flushed by ASID
system.switch_cpus1.itb.flush_entries               0                       # Number of entries that have been flushed from TLB
system.switch_cpus1.itb.align_faults                0                       # Number of TLB faults due to alignment restrictions
system.switch_cpus1.itb.prefetch_faults             0                       # Number of TLB faults due to prefetch
system.switch_cpus1.itb.domain_faults               0                       # Number of TLB faults due to domain restrictions
system.switch_cpus1.itb.perms_faults                0                       # Number of TLB faults due to permissions restrictions
system.switch_cpus1.itb.read_accesses               0                       # DTB read accesses
system.switch_cpus1.itb.write_accesses              0                       # DTB write accesses
system.switch_cpus1.itb.inst_accesses               0                       # ITB inst accesses
system.switch_cpus1.itb.hits                        0                       # DTB hits
system.switch_cpus1.itb.misses                      0                       # DTB misses
system.switch_cpus1.itb.accesses                    0                       # DTB accesses
system.cpu1.workload.num_syscalls                   0                       # Number of system calls
system.switch_cpus1.numCycles                85767243                       # number of cpu cycles simulated
system.switch_cpus1.numWorkItemsStarted             0                       # number of work items this cpu started
system.switch_cpus1.numWorkItemsCompleted            0                       # number of work items this cpu completed
system.switch_cpus1.BPredUnit.lookups        31743758                       # Number of BP lookups
system.switch_cpus1.BPredUnit.condPredicted     25880516                       # Number of conditional branches predicted
system.switch_cpus1.BPredUnit.condIncorrect      2119771                       # Number of conditional branches incorrect
system.switch_cpus1.BPredUnit.BTBLookups     13435275                       # Number of BTB lookups
system.switch_cpus1.BPredUnit.BTBHits        12412705                       # Number of BTB hits
system.switch_cpus1.BPredUnit.BTBCorrect            0                       # Number of correct BTB predictions (this stat may not work properly.
system.switch_cpus1.BPredUnit.usedRAS         3421850                       # Number of times the RAS was used to get a target.
system.switch_cpus1.BPredUnit.RASInCorrect        94220                       # Number of incorrect RAS predictions.
system.switch_cpus1.fetch.icacheStallCycles     31750498                       # Number of cycles fetch is stalled on an Icache miss
system.switch_cpus1.fetch.Insts             174357019                       # Number of instructions fetch has processed
system.switch_cpus1.fetch.Branches           31743758                       # Number of branches that fetch encountered
system.switch_cpus1.fetch.predictedBranches     15834555                       # Number of branches that fetch has predicted taken
system.switch_cpus1.fetch.Cycles             38736343                       # Number of cycles fetch has run and was not squashing or blocked
system.switch_cpus1.fetch.SquashCycles       11264436                       # Number of cycles fetch has spent squashing
system.switch_cpus1.fetch.BlockedCycles       5172418                       # Number of cycles fetch has spent blocked
system.switch_cpus1.fetch.PendingTrapStallCycles           20                       # Number of stall cycles due to pending traps
system.switch_cpus1.fetch.CacheLines         15674251                       # Number of cache lines fetched
system.switch_cpus1.fetch.IcacheSquashes      1027674                       # Number of outstanding Icache misses that were squashed
system.switch_cpus1.fetch.rateDist::samples     84777802                       # Number of instructions fetched each cycle (Total)
system.switch_cpus1.fetch.rateDist::mean     2.548732                       # Number of instructions fetched each cycle (Total)
system.switch_cpus1.fetch.rateDist::stdev     3.295520                       # Number of instructions fetched each cycle (Total)
system.switch_cpus1.fetch.rateDist::underflows            0      0.00%      0.00% # Number of instructions fetched each cycle (Total)
system.switch_cpus1.fetch.rateDist::0        46041459     54.31%     54.31% # Number of instructions fetched each cycle (Total)
system.switch_cpus1.fetch.rateDist::1         2562398      3.02%     57.33% # Number of instructions fetched each cycle (Total)
system.switch_cpus1.fetch.rateDist::2         4796261      5.66%     62.99% # Number of instructions fetched each cycle (Total)
system.switch_cpus1.fetch.rateDist::3         4770720      5.63%     68.62% # Number of instructions fetched each cycle (Total)
system.switch_cpus1.fetch.rateDist::4         2961792      3.49%     72.11% # Number of instructions fetched each cycle (Total)
system.switch_cpus1.fetch.rateDist::5         2353848      2.78%     74.89% # Number of instructions fetched each cycle (Total)
system.switch_cpus1.fetch.rateDist::6         1477083      1.74%     76.63% # Number of instructions fetched each cycle (Total)
system.switch_cpus1.fetch.rateDist::7         1384056      1.63%     78.26% # Number of instructions fetched each cycle (Total)
system.switch_cpus1.fetch.rateDist::8        18430185     21.74%    100.00% # Number of instructions fetched each cycle (Total)
system.switch_cpus1.fetch.rateDist::overflows            0      0.00%    100.00% # Number of instructions fetched each cycle (Total)
system.switch_cpus1.fetch.rateDist::min_value            0                       # Number of instructions fetched each cycle (Total)
system.switch_cpus1.fetch.rateDist::max_value            8                       # Number of instructions fetched each cycle (Total)
system.switch_cpus1.fetch.rateDist::total     84777802                       # Number of instructions fetched each cycle (Total)
system.switch_cpus1.fetch.branchRate         0.370115                       # Number of branch fetches per cycle
system.switch_cpus1.fetch.rate               2.032909                       # Number of inst fetches per cycle
system.switch_cpus1.decode.IdleCycles        33109734                       # Number of cycles decode is idle
system.switch_cpus1.decode.BlockedCycles      5112449                       # Number of cycles decode is blocked
system.switch_cpus1.decode.RunCycles         37209134                       # Number of cycles decode is running
system.switch_cpus1.decode.UnblockCycles       228195                       # Number of cycles decode is unblocking
system.switch_cpus1.decode.SquashCycles       9118283                       # Number of cycles decode is squashing
system.switch_cpus1.decode.BranchResolved      5368833                       # Number of times decode resolved a branch
system.switch_cpus1.decode.BranchMispred          258                       # Number of times decode detected a branch misprediction
system.switch_cpus1.decode.DecodedInsts     209184524                       # Number of instructions handled by decode
system.switch_cpus1.decode.SquashedInsts         1380                       # Number of squashed instructions handled by decode
system.switch_cpus1.rename.SquashCycles       9118283                       # Number of cycles rename is squashing
system.switch_cpus1.rename.IdleCycles        35513847                       # Number of cycles rename is idle
system.switch_cpus1.rename.BlockCycles        1004654                       # Number of cycles rename is blocking
system.switch_cpus1.rename.serializeStallCycles       815714                       # count of cycles rename stalled for serializing inst
system.switch_cpus1.rename.RunCycles         34987103                       # Number of cycles rename is running
system.switch_cpus1.rename.UnblockCycles      3338195                       # Number of cycles rename is unblocking
system.switch_cpus1.rename.RenamedInsts     201703120                       # Number of instructions processed by rename
system.switch_cpus1.rename.ROBFullEvents           23                       # Number of times rename has blocked due to ROB full
system.switch_cpus1.rename.IQFullEvents       1390265                       # Number of times rename has blocked due to IQ full
system.switch_cpus1.rename.LSQFullEvents      1021125                       # Number of times rename has blocked due to LSQ full
system.switch_cpus1.rename.RenamedOperands    283217740                       # Number of destination operands rename has renamed
system.switch_cpus1.rename.RenameLookups    941004137                       # Number of register rename lookups that rename has made
system.switch_cpus1.rename.int_rename_lookups    941004137                       # Number of integer rename lookups
system.switch_cpus1.rename.CommittedMaps    175182831                       # Number of HB maps that are committed
system.switch_cpus1.rename.UndoneMaps       108034875                       # Number of HB maps that are undone due to squashing
system.switch_cpus1.rename.serializingInsts        35910                       # count of serializing insts renamed
system.switch_cpus1.rename.tempSerializingInsts        17250                       # count of temporary serializing insts renamed
system.switch_cpus1.rename.skidInsts          9289687                       # count of insts added to the skid buffer
system.switch_cpus1.memDep0.insertedLoads     18662161                       # Number of loads inserted to the mem dependence unit.
system.switch_cpus1.memDep0.insertedStores      9527501                       # Number of stores inserted to the mem dependence unit.
system.switch_cpus1.memDep0.conflictingLoads       120867                       # Number of conflicting loads.
system.switch_cpus1.memDep0.conflictingStores      3440108                       # Number of conflicting stores.
system.switch_cpus1.iq.iqInstsAdded         190168942                       # Number of instructions added to the IQ (excludes non-spec)
system.switch_cpus1.iq.iqNonSpecInstsAdded        34500                       # Number of non-speculative instructions added to the IQ
system.switch_cpus1.iq.iqInstsIssued        151475483                       # Number of instructions issued
system.switch_cpus1.iq.iqSquashedInstsIssued       295872                       # Number of squashed instructions issued
system.switch_cpus1.iq.iqSquashedInstsExamined     64304220                       # Number of squashed instructions iterated over during squash; mainly for profiling
system.switch_cpus1.iq.iqSquashedOperandsExamined    196751273                       # Number of squashed operands that are examined and possibly removed from graph
system.switch_cpus1.iq.issued_per_cycle::samples     84777802                       # Number of insts issued each cycle
system.switch_cpus1.iq.issued_per_cycle::mean     1.786735                       # Number of insts issued each cycle
system.switch_cpus1.iq.issued_per_cycle::stdev     1.896446                       # Number of insts issued each cycle
system.switch_cpus1.iq.issued_per_cycle::underflows            0      0.00%      0.00% # Number of insts issued each cycle
system.switch_cpus1.iq.issued_per_cycle::0     28841148     34.02%     34.02% # Number of insts issued each cycle
system.switch_cpus1.iq.issued_per_cycle::1     18448993     21.76%     55.78% # Number of insts issued each cycle
system.switch_cpus1.iq.issued_per_cycle::2     12304849     14.51%     70.30% # Number of insts issued each cycle
system.switch_cpus1.iq.issued_per_cycle::3      8000435      9.44%     79.73% # Number of insts issued each cycle
system.switch_cpus1.iq.issued_per_cycle::4      8415827      9.93%     89.66% # Number of insts issued each cycle
system.switch_cpus1.iq.issued_per_cycle::5      4073822      4.81%     94.46% # Number of insts issued each cycle
system.switch_cpus1.iq.issued_per_cycle::6      3213125      3.79%     98.25% # Number of insts issued each cycle
system.switch_cpus1.iq.issued_per_cycle::7       732505      0.86%     99.12% # Number of insts issued each cycle
system.switch_cpus1.iq.issued_per_cycle::8       747098      0.88%    100.00% # Number of insts issued each cycle
system.switch_cpus1.iq.issued_per_cycle::overflows            0      0.00%    100.00% # Number of insts issued each cycle
system.switch_cpus1.iq.issued_per_cycle::min_value            0                       # Number of insts issued each cycle
system.switch_cpus1.iq.issued_per_cycle::max_value            8                       # Number of insts issued each cycle
system.switch_cpus1.iq.issued_per_cycle::total     84777802                       # Number of insts issued each cycle
system.switch_cpus1.iq.fu_full::No_OpClass            0      0.00%      0.00% # attempts to use FU when none available
system.switch_cpus1.iq.fu_full::IntAlu         943891     72.53%     72.53% # attempts to use FU when none available
system.switch_cpus1.iq.fu_full::IntMult             0      0.00%     72.53% # attempts to use FU when none available
system.switch_cpus1.iq.fu_full::IntDiv              0      0.00%     72.53% # attempts to use FU when none available
system.switch_cpus1.iq.fu_full::FloatAdd            0      0.00%     72.53% # attempts to use FU when none available
system.switch_cpus1.iq.fu_full::FloatCmp            0      0.00%     72.53% # attempts to use FU when none available
system.switch_cpus1.iq.fu_full::FloatCvt            0      0.00%     72.53% # attempts to use FU when none available
system.switch_cpus1.iq.fu_full::FloatMult            0      0.00%     72.53% # attempts to use FU when none available
system.switch_cpus1.iq.fu_full::FloatDiv            0      0.00%     72.53% # attempts to use FU when none available
system.switch_cpus1.iq.fu_full::FloatSqrt            0      0.00%     72.53% # attempts to use FU when none available
system.switch_cpus1.iq.fu_full::SimdAdd             0      0.00%     72.53% # attempts to use FU when none available
system.switch_cpus1.iq.fu_full::SimdAddAcc            0      0.00%     72.53% # attempts to use FU when none available
system.switch_cpus1.iq.fu_full::SimdAlu             0      0.00%     72.53% # attempts to use FU when none available
system.switch_cpus1.iq.fu_full::SimdCmp             0      0.00%     72.53% # attempts to use FU when none available
system.switch_cpus1.iq.fu_full::SimdCvt             0      0.00%     72.53% # attempts to use FU when none available
system.switch_cpus1.iq.fu_full::SimdMisc            0      0.00%     72.53% # attempts to use FU when none available
system.switch_cpus1.iq.fu_full::SimdMult            0      0.00%     72.53% # attempts to use FU when none available
system.switch_cpus1.iq.fu_full::SimdMultAcc            0      0.00%     72.53% # attempts to use FU when none available
system.switch_cpus1.iq.fu_full::SimdShift            0      0.00%     72.53% # attempts to use FU when none available
system.switch_cpus1.iq.fu_full::SimdShiftAcc            0      0.00%     72.53% # attempts to use FU when none available
system.switch_cpus1.iq.fu_full::SimdSqrt            0      0.00%     72.53% # attempts to use FU when none available
system.switch_cpus1.iq.fu_full::SimdFloatAdd            0      0.00%     72.53% # attempts to use FU when none available
system.switch_cpus1.iq.fu_full::SimdFloatAlu            0      0.00%     72.53% # attempts to use FU when none available
system.switch_cpus1.iq.fu_full::SimdFloatCmp            0      0.00%     72.53% # attempts to use FU when none available
system.switch_cpus1.iq.fu_full::SimdFloatCvt            0      0.00%     72.53% # attempts to use FU when none available
system.switch_cpus1.iq.fu_full::SimdFloatDiv            0      0.00%     72.53% # attempts to use FU when none available
system.switch_cpus1.iq.fu_full::SimdFloatMisc            0      0.00%     72.53% # attempts to use FU when none available
system.switch_cpus1.iq.fu_full::SimdFloatMult            0      0.00%     72.53% # attempts to use FU when none available
system.switch_cpus1.iq.fu_full::SimdFloatMultAcc            0      0.00%     72.53% # attempts to use FU when none available
system.switch_cpus1.iq.fu_full::SimdFloatSqrt            0      0.00%     72.53% # attempts to use FU when none available
system.switch_cpus1.iq.fu_full::MemRead        179969     13.83%     86.36% # attempts to use FU when none available
system.switch_cpus1.iq.fu_full::MemWrite       177438     13.64%    100.00% # attempts to use FU when none available
system.switch_cpus1.iq.fu_full::IprAccess            0      0.00%    100.00% # attempts to use FU when none available
system.switch_cpus1.iq.fu_full::InstPrefetch            0      0.00%    100.00% # attempts to use FU when none available
system.switch_cpus1.iq.FU_type_0::No_OpClass            0      0.00%      0.00% # Type of FU issued
system.switch_cpus1.iq.FU_type_0::IntAlu    126709892     83.65%     83.65% # Type of FU issued
system.switch_cpus1.iq.FU_type_0::IntMult      2035266      1.34%     84.99% # Type of FU issued
system.switch_cpus1.iq.FU_type_0::IntDiv            0      0.00%     84.99% # Type of FU issued
system.switch_cpus1.iq.FU_type_0::FloatAdd            0      0.00%     84.99% # Type of FU issued
system.switch_cpus1.iq.FU_type_0::FloatCmp            0      0.00%     84.99% # Type of FU issued
system.switch_cpus1.iq.FU_type_0::FloatCvt            0      0.00%     84.99% # Type of FU issued
system.switch_cpus1.iq.FU_type_0::FloatMult            0      0.00%     84.99% # Type of FU issued
system.switch_cpus1.iq.FU_type_0::FloatDiv            0      0.00%     84.99% # Type of FU issued
system.switch_cpus1.iq.FU_type_0::FloatSqrt            0      0.00%     84.99% # Type of FU issued
system.switch_cpus1.iq.FU_type_0::SimdAdd            0      0.00%     84.99% # Type of FU issued
system.switch_cpus1.iq.FU_type_0::SimdAddAcc            0      0.00%     84.99% # Type of FU issued
system.switch_cpus1.iq.FU_type_0::SimdAlu            0      0.00%     84.99% # Type of FU issued
system.switch_cpus1.iq.FU_type_0::SimdCmp            0      0.00%     84.99% # Type of FU issued
system.switch_cpus1.iq.FU_type_0::SimdCvt            0      0.00%     84.99% # Type of FU issued
system.switch_cpus1.iq.FU_type_0::SimdMisc            0      0.00%     84.99% # Type of FU issued
system.switch_cpus1.iq.FU_type_0::SimdMult            0      0.00%     84.99% # Type of FU issued
system.switch_cpus1.iq.FU_type_0::SimdMultAcc            0      0.00%     84.99% # Type of FU issued
system.switch_cpus1.iq.FU_type_0::SimdShift            0      0.00%     84.99% # Type of FU issued
system.switch_cpus1.iq.FU_type_0::SimdShiftAcc            0      0.00%     84.99% # Type of FU issued
system.switch_cpus1.iq.FU_type_0::SimdSqrt            0      0.00%     84.99% # Type of FU issued
system.switch_cpus1.iq.FU_type_0::SimdFloatAdd            0      0.00%     84.99% # Type of FU issued
system.switch_cpus1.iq.FU_type_0::SimdFloatAlu            0      0.00%     84.99% # Type of FU issued
system.switch_cpus1.iq.FU_type_0::SimdFloatCmp            0      0.00%     84.99% # Type of FU issued
system.switch_cpus1.iq.FU_type_0::SimdFloatCvt            0      0.00%     84.99% # Type of FU issued
system.switch_cpus1.iq.FU_type_0::SimdFloatDiv            0      0.00%     84.99% # Type of FU issued
system.switch_cpus1.iq.FU_type_0::SimdFloatMisc        17249      0.01%     85.01% # Type of FU issued
system.switch_cpus1.iq.FU_type_0::SimdFloatMult            0      0.00%     85.01% # Type of FU issued
system.switch_cpus1.iq.FU_type_0::SimdFloatMultAcc            0      0.00%     85.01% # Type of FU issued
system.switch_cpus1.iq.FU_type_0::SimdFloatSqrt            0      0.00%     85.01% # Type of FU issued
system.switch_cpus1.iq.FU_type_0::MemRead     14654374      9.67%     94.68% # Type of FU issued
system.switch_cpus1.iq.FU_type_0::MemWrite      8058702      5.32%    100.00% # Type of FU issued
system.switch_cpus1.iq.FU_type_0::IprAccess            0      0.00%    100.00% # Type of FU issued
system.switch_cpus1.iq.FU_type_0::InstPrefetch            0      0.00%    100.00% # Type of FU issued
system.switch_cpus1.iq.FU_type_0::total     151475483                       # Type of FU issued
system.switch_cpus1.iq.rate                  1.766123                       # Inst issue rate
system.switch_cpus1.iq.fu_busy_cnt            1301298                       # FU busy when requested
system.switch_cpus1.iq.fu_busy_rate          0.008591                       # FU busy rate (busy events/executed inst)
system.switch_cpus1.iq.int_inst_queue_reads    389325936                       # Number of integer instruction queue reads
system.switch_cpus1.iq.int_inst_queue_writes    254508021                       # Number of integer instruction queue writes
system.switch_cpus1.iq.int_inst_queue_wakeup_accesses    148013750                       # Number of integer instruction queue wakeup accesses
system.switch_cpus1.iq.fp_inst_queue_reads            0                       # Number of floating instruction queue reads
system.switch_cpus1.iq.fp_inst_queue_writes            0                       # Number of floating instruction queue writes
system.switch_cpus1.iq.fp_inst_queue_wakeup_accesses            0                       # Number of floating instruction queue wakeup accesses
system.switch_cpus1.iq.int_alu_accesses     152776781                       # Number of integer alu accesses
system.switch_cpus1.iq.fp_alu_accesses              0                       # Number of floating point alu accesses
system.switch_cpus1.iew.lsq.thread0.forwLoads       473536                       # Number of loads that had data forwarded from stores
system.switch_cpus1.iew.lsq.thread0.invAddrLoads            0                       # Number of loads ignored due to an invalid address
system.switch_cpus1.iew.lsq.thread0.squashedLoads      7241884                       # Number of loads squashed
system.switch_cpus1.iew.lsq.thread0.ignoredResponses         2121                       # Number of memory responses ignored because the instruction is squashed
system.switch_cpus1.iew.lsq.thread0.memOrderViolation          362                       # Number of memory ordering violations
system.switch_cpus1.iew.lsq.thread0.squashedStores      2292790                       # Number of stores squashed
system.switch_cpus1.iew.lsq.thread0.invAddrSwpfs            0                       # Number of software prefetches ignored due to an invalid address
system.switch_cpus1.iew.lsq.thread0.blockedLoads            0                       # Number of blocked loads due to partial load-store forwarding
system.switch_cpus1.iew.lsq.thread0.rescheduledLoads            0                       # Number of loads that were rescheduled
system.switch_cpus1.iew.lsq.thread0.cacheBlocked            0                       # Number of times an access to memory failed due to the cache being blocked
system.switch_cpus1.iew.iewIdleCycles               0                       # Number of cycles IEW is idle
system.switch_cpus1.iew.iewSquashCycles       9118283                       # Number of cycles IEW is squashing
system.switch_cpus1.iew.iewBlockCycles         512644                       # Number of cycles IEW is blocking
system.switch_cpus1.iew.iewUnblockCycles        90888                       # Number of cycles IEW is unblocking
system.switch_cpus1.iew.iewDispatchedInsts    190203445                       # Number of instructions dispatched to IQ
system.switch_cpus1.iew.iewDispSquashedInsts       378305                       # Number of squashed instructions skipped by dispatch
system.switch_cpus1.iew.iewDispLoadInsts     18662161                       # Number of dispatched load instructions
system.switch_cpus1.iew.iewDispStoreInsts      9527501                       # Number of dispatched store instructions
system.switch_cpus1.iew.iewDispNonSpecInsts        17250                       # Number of dispatched non-speculative instructions
system.switch_cpus1.iew.iewIQFullEvents         71360                       # Number of times the IQ has become full, causing a stall
system.switch_cpus1.iew.iewLSQFullEvents            0                       # Number of times the LSQ has become full, causing a stall
system.switch_cpus1.iew.memOrderViolationEvents          362                       # Number of memory order violations
system.switch_cpus1.iew.predictedTakenIncorrect      1326960                       # Number of branches that were predicted taken incorrectly
system.switch_cpus1.iew.predictedNotTakenIncorrect      1176860                       # Number of branches that were predicted not taken incorrectly
system.switch_cpus1.iew.branchMispredicts      2503820                       # Number of branch mispredicts detected at execute
system.switch_cpus1.iew.iewExecutedInsts    149473403                       # Number of executed instructions
system.switch_cpus1.iew.iewExecLoadInsts     13983071                       # Number of load instructions executed
system.switch_cpus1.iew.iewExecSquashedInsts      2002078                       # Number of squashed instructions skipped in execute
system.switch_cpus1.iew.exec_swp                    0                       # number of swp insts executed
system.switch_cpus1.iew.exec_nop                    3                       # number of nop insts executed
system.switch_cpus1.iew.exec_refs            21853817                       # number of memory reference insts executed
system.switch_cpus1.iew.exec_branches        21195145                       # Number of branches executed
system.switch_cpus1.iew.exec_stores           7870746                       # Number of stores executed
system.switch_cpus1.iew.exec_rate            1.742780                       # Inst execution rate
system.switch_cpus1.iew.wb_sent             148059984                       # cumulative count of insts sent to commit
system.switch_cpus1.iew.wb_count            148013750                       # cumulative count of insts written-back
system.switch_cpus1.iew.wb_producers         94342638                       # num instructions producing a value
system.switch_cpus1.iew.wb_consumers        270754831                       # num instructions consuming a value
system.switch_cpus1.iew.wb_penalized                0                       # number of instrctions required to write to 'other' IQ
system.switch_cpus1.iew.wb_rate              1.725761                       # insts written-back per cycle
system.switch_cpus1.iew.wb_fanout            0.348443                       # average fanout of values written-back
system.switch_cpus1.iew.wb_penalized_rate            0                       # fraction of instructions written-back that wrote to 'other' IQ
system.switch_cpus1.commit.commitCommittedInsts    102026135                       # The number of committed instructions
system.switch_cpus1.commit.commitCommittedOps    125624112                       # The number of committed instructions
system.switch_cpus1.commit.commitSquashedInsts     64579756                       # The number of squashed insts skipped by commit
system.switch_cpus1.commit.commitNonSpecStalls        34500                       # The number of times commit has been forced to stall to communicate backwards
system.switch_cpus1.commit.branchMispredicts      2145406                       # The number of times a branch was mispredicted
system.switch_cpus1.commit.committed_per_cycle::samples     75659519                       # Number of insts commited each cycle
system.switch_cpus1.commit.committed_per_cycle::mean     1.660387                       # Number of insts commited each cycle
system.switch_cpus1.commit.committed_per_cycle::stdev     2.150339                       # Number of insts commited each cycle
system.switch_cpus1.commit.committed_per_cycle::underflows            0      0.00%      0.00% # Number of insts commited each cycle
system.switch_cpus1.commit.committed_per_cycle::0     28511641     37.68%     37.68% # Number of insts commited each cycle
system.switch_cpus1.commit.committed_per_cycle::1     21281927     28.13%     65.81% # Number of insts commited each cycle
system.switch_cpus1.commit.committed_per_cycle::2      8840994     11.69%     77.50% # Number of insts commited each cycle
system.switch_cpus1.commit.committed_per_cycle::3      4408748      5.83%     83.33% # Number of insts commited each cycle
system.switch_cpus1.commit.committed_per_cycle::4      4402556      5.82%     89.14% # Number of insts commited each cycle
system.switch_cpus1.commit.committed_per_cycle::5      1781935      2.36%     91.50% # Number of insts commited each cycle
system.switch_cpus1.commit.committed_per_cycle::6      1791276      2.37%     93.87% # Number of insts commited each cycle
system.switch_cpus1.commit.committed_per_cycle::7       957138      1.27%     95.13% # Number of insts commited each cycle
system.switch_cpus1.commit.committed_per_cycle::8      3683304      4.87%    100.00% # Number of insts commited each cycle
system.switch_cpus1.commit.committed_per_cycle::overflows            0      0.00%    100.00% # Number of insts commited each cycle
system.switch_cpus1.commit.committed_per_cycle::min_value            0                       # Number of insts commited each cycle
system.switch_cpus1.commit.committed_per_cycle::max_value            8                       # Number of insts commited each cycle
system.switch_cpus1.commit.committed_per_cycle::total     75659519                       # Number of insts commited each cycle
system.switch_cpus1.commit.committedInsts    102026135                       # Number of instructions committed
system.switch_cpus1.commit.committedOps     125624112                       # Number of ops (including micro ops) committed
system.switch_cpus1.commit.swp_count                0                       # Number of s/w prefetches committed
system.switch_cpus1.commit.refs              18654983                       # Number of memory references committed
system.switch_cpus1.commit.loads             11420272                       # Number of loads committed
system.switch_cpus1.commit.membars              17250                       # Number of memory barriers committed
system.switch_cpus1.commit.branches          18132488                       # Number of branches committed
system.switch_cpus1.commit.fp_insts                 0                       # Number of committed floating point instructions.
system.switch_cpus1.commit.int_insts        113177683                       # Number of committed integer instructions.
system.switch_cpus1.commit.function_calls      2590990                       # Number of function calls committed.
system.switch_cpus1.commit.bw_lim_events      3683304                       # number cycles where commit BW limit reached
system.switch_cpus1.commit.bw_limited               0                       # number of insts not committed due to BW limits
system.switch_cpus1.rob.rob_reads           262180083                       # The number of ROB reads
system.switch_cpus1.rob.rob_writes          389531947                       # The number of ROB writes
system.switch_cpus1.timesIdled                  31606                       # Number of times that the entire CPU went into an idle state and unscheduled itself
system.switch_cpus1.idleCycles                 989441                       # Total number of cycles that the CPU has spent unscheduled due to idling
system.switch_cpus1.committedInsts          102026135                       # Number of Instructions Simulated
system.switch_cpus1.committedOps            125624112                       # Number of Ops (including micro ops) Simulated
system.switch_cpus1.committedInsts_total    102026135                       # Number of Instructions Simulated
system.switch_cpus1.cpi                      0.840640                       # CPI: Cycles Per Instruction
system.switch_cpus1.cpi_total                0.840640                       # CPI: Total CPI of All Threads
system.switch_cpus1.ipc                      1.189570                       # IPC: Instructions Per Cycle
system.switch_cpus1.ipc_total                1.189570                       # IPC: Total IPC of All Threads
[...]
system.cpu1.icache.ReadReq_miss_latency::switch_cpus1.inst      1524990                       # number of ReadReq miss cycles
system.cpu1.icache.ReadReq_miss_latency::total      1524990                       # number of ReadReq miss cycles
system.cpu1.icache.demand_miss_latency::switch_cpus1.inst      1524990                       # number of demand (read+write) miss cycles
system.cpu1.icache.demand_miss_latency::total      1524990                       # number of demand (read+write) miss cycles
system.cpu1.icache.overall_miss_latency::switch_cpus1.inst      1524990                       # number of overall miss cycles
system.cpu1.icache.overall_miss_latency::total      1524990                       # number of overall miss cycles
system.cpu1.icache.ReadReq_accesses::switch_cpus1.inst     15674251                       # number of ReadReq accesses(hits+misses)
system.cpu1.icache.ReadReq_accesses::total     15674251                       # number of ReadReq accesses(hits+misses)
system.cpu1.icache.demand_accesses::switch_cpus1.inst     15674251                       # number of demand (read+write) accesses
system.cpu1.icache.demand_accesses::total     15674251                       # number of demand (read+write) accesses
system.cpu1.icache.overall_accesses::switch_cpus1.inst     15674251                       # number of overall (read+write) accesses
system.cpu1.icache.overall_accesses::total     15674251                       # number of overall (read+write) accesses
system.cpu1.icache.ReadReq_miss_rate::switch_cpus1.inst     0.000001                       # miss rate for ReadReq accesses
system.cpu1.icache.ReadReq_miss_rate::total     0.000001                       # miss rate for ReadReq accesses
system.cpu1.icache.demand_miss_rate::switch_cpus1.inst     0.000001                       # miss rate for demand accesses
system.cpu1.icache.demand_miss_rate::total     0.000001                       # miss rate for demand accesses
system.cpu1.icache.overall_miss_rate::switch_cpus1.inst     0.000001                       # miss rate for overall accesses
system.cpu1.icache.overall_miss_rate::total     0.000001                       # miss rate for overall accesses
system.cpu1.icache.ReadReq_avg_miss_latency::switch_cpus1.inst 89705.294118                       # average ReadReq miss latency
system.cpu1.icache.ReadReq_avg_miss_latency::total 89705.294118                       # average ReadReq miss latency
system.cpu1.icache.demand_avg_miss_latency::switch_cpus1.inst 89705.294118                       # average overall miss latency
system.cpu1.icache.demand_avg_miss_latency::total 89705.294118                       # average overall miss latency
system.cpu1.icache.overall_avg_miss_latency::switch_cpus1.inst 89705.294118                       # average overall miss latency
system.cpu1.icache.overall_avg_miss_latency::total 89705.294118                       # average overall miss latency
system.cpu1.icache.blocked_cycles::no_mshrs            0                       # number of cycles access was blocked
system.cpu1.icache.blocked_cycles::no_targets            0                       # number of cycles access was blocked
system.cpu1.icache.blocked::no_mshrs                0                       # number of cycles access was blocked
system.cpu1.icache.blocked::no_targets              0                       # number of cycles access was blocked
system.cpu1.icache.avg_blocked_cycles::no_mshrs          nan                       # average number of cycles each access was blocked
system.cpu1.icache.avg_blocked_cycles::no_targets          nan                       # average number of cycles each access was blocked
system.cpu1.icache.fast_writes                      0                       # number of fast writes performed
system.cpu1.icache.cache_copies                     0                       # number of cache copies performed
system.cpu1.icache.ReadReq_mshr_hits::switch_cpus1.inst            3                       # number of ReadReq MSHR hits
system.cpu1.icache.ReadReq_mshr_hits::total            3                       # number of ReadReq MSHR hits
system.cpu1.icache.demand_mshr_hits::switch_cpus1.inst            3                       # number of demand (read+write) MSHR hits
system.cpu1.icache.demand_mshr_hits::total            3                       # number of demand (read+write) MSHR hits
system.cpu1.icache.overall_mshr_hits::switch_cpus1.inst            3                       # number of overall MSHR hits
system.cpu1.icache.overall_mshr_hits::total            3                       # number of overall MSHR hits
system.cpu1.icache.ReadReq_mshr_misses::switch_cpus1.inst           14                       # number of ReadReq MSHR misses
system.cpu1.icache.ReadReq_mshr_misses::total           14                       # number of ReadReq MSHR misses
system.cpu1.icache.demand_mshr_misses::switch_cpus1.inst           14                       # number of demand (read+write) MSHR misses
system.cpu1.icache.demand_mshr_misses::total           14                       # number of demand (read+write) MSHR misses
system.cpu1.icache.overall_mshr_misses::switch_cpus1.inst           14                       # number of overall MSHR misses
system.cpu1.icache.overall_mshr_misses::total           14                       # number of overall MSHR misses
system.cpu1.icache.ReadReq_mshr_miss_latency::switch_cpus1.inst      1189880                       # number of ReadReq MSHR miss cycles
system.cpu1.icache.ReadReq_mshr_miss_latency::total      1189880                       # number of ReadReq MSHR miss cycles
system.cpu1.icache.demand_mshr_miss_latency::switch_cpus1.inst      1189880                       # number of demand (read+write) MSHR miss cycles
system.cpu1.icache.demand_mshr_miss_latency::total      1189880                       # number of demand (read+write) MSHR miss cycles
system.cpu1.icache.overall_mshr_miss_latency::switch_cpus1.inst      1189880                       # number of overall MSHR miss cycles
system.cpu1.icache.overall_mshr_miss_latency::total      1189880                       # number of overall MSHR miss cycles
system.cpu1.icache.ReadReq_mshr_miss_rate::switch_cpus1.inst     0.000001                       # mshr miss rate for ReadReq accesses
system.cpu1.icache.ReadReq_mshr_miss_rate::total     0.000001                       # mshr miss rate for ReadReq accesses
system.cpu1.icache.demand_mshr_miss_rate::switch_cpus1.inst     0.000001                       # mshr miss rate for demand accesses
system.cpu1.icache.demand_mshr_miss_rate::total     0.000001                       # mshr miss rate for demand accesses
system.cpu1.icache.overall_mshr_miss_rate::switch_cpus1.inst     0.000001                       # mshr miss rate for overall accesses
system.cpu1.icache.overall_mshr_miss_rate::total     0.000001                       # mshr miss rate for overall accesses
system.cpu1.icache.ReadReq_avg_mshr_miss_latency::switch_cpus1.inst 84991.428571                       # average ReadReq mshr miss latency
system.cpu1.icache.ReadReq_avg_mshr_miss_latency::total 84991.428571                       # average ReadReq mshr miss latency
system.cpu1.icache.demand_avg_mshr_miss_latency::switch_cpus1.inst 84991.428571                       # average overall mshr miss latency
system.cpu1.icache.demand_avg_mshr_miss_latency::total 84991.428571                       # average overall mshr miss latency
system.cpu1.icache.overall_avg_mshr_miss_latency::switch_cpus1.inst 84991.428571                       # average overall mshr miss latency
system.cpu1.icache.overall_avg_mshr_miss_latency::total 84991.428571                       # average overall mshr miss latency
system.cpu1.icache.no_allocate_misses               0                       # Number of misses that were no-allocate
system.cpu1.dcache.replacements                 39728                       # number of replacements
system.cpu1.dcache.tagsinuse                      256                       # Cycle average of tags in use
system.cpu1.dcache.total_refs               170004376                       # Total number of references to valid blocks.
system.cpu1.dcache.sampled_refs                 39984                       # Sample count of references to valid blocks.
system.cpu1.dcache.avg_refs               4251.810124                       # Average number of references to valid blocks.
system.cpu1.dcache.warmup_cycle                     0                       # Cycle when the warmup percentage was hit.
system.cpu1.dcache.occ_blocks::switch_cpus1.data   231.851604                       # Average occupied blocks per requestor
system.cpu1.dcache.occ_blocks::cpu1.data    24.148396                       # Average occupied blocks per requestor
system.cpu1.dcache.occ_percent::switch_cpus1.data     0.905670                       # Average percentage of cache occupancy
system.cpu1.dcache.occ_percent::cpu1.data     0.094330                       # Average percentage of cache occupancy
system.cpu1.dcache.occ_percent::total               1                       # Average percentage of cache occupancy
system.cpu1.dcache.ReadReq_hits::switch_cpus1.data     10669335                       # number of ReadReq hits
system.cpu1.dcache.ReadReq_hits::total       10669335                       # number of ReadReq hits
system.cpu1.dcache.WriteReq_hits::switch_cpus1.data      7200777                       # number of WriteReq hits
system.cpu1.dcache.WriteReq_hits::total       7200777                       # number of WriteReq hits
system.cpu1.dcache.LoadLockedReq_hits::switch_cpus1.data        17250                       # number of LoadLockedReq hits
system.cpu1.dcache.LoadLockedReq_hits::total        17250                       # number of LoadLockedReq hits
system.cpu1.dcache.StoreCondReq_hits::switch_cpus1.data        17250                       # number of StoreCondReq hits
system.cpu1.dcache.StoreCondReq_hits::total        17250                       # number of StoreCondReq hits
system.cpu1.dcache.demand_hits::switch_cpus1.data     17870112                       # number of demand (read+write) hits
system.cpu1.dcache.demand_hits::total        17870112                       # number of demand (read+write) hits
system.cpu1.dcache.overall_hits::switch_cpus1.data     17870112                       # number of overall hits
system.cpu1.dcache.overall_hits::total       17870112                       # number of overall hits
system.cpu1.dcache.ReadReq_misses::switch_cpus1.data       102606                       # number of ReadReq misses
system.cpu1.dcache.ReadReq_misses::total       102606                       # number of ReadReq misses
system.cpu1.dcache.demand_misses::switch_cpus1.data       102606                       # number of demand (read+write) misses
system.cpu1.dcache.demand_misses::total        102606                       # number of demand (read+write) misses
system.cpu1.dcache.overall_misses::switch_cpus1.data       102606                       # number of overall misses
system.cpu1.dcache.overall_misses::total       102606                       # number of overall misses
system.cpu1.dcache.ReadReq_miss_latency::switch_cpus1.data   3517392268                       # number of ReadReq miss cycles
system.cpu1.dcache.ReadReq_miss_latency::total   3517392268                       # number of ReadReq miss cycles
system.cpu1.dcache.demand_miss_latency::switch_cpus1.data   3517392268                       # number of demand (read+write) miss cycles
system.cpu1.dcache.demand_miss_latency::total   3517392268                       # number of demand (read+write) miss cycles
system.cpu1.dcache.overall_miss_latency::switch_cpus1.data   3517392268                       # number of overall miss cycles
system.cpu1.dcache.overall_miss_latency::total   3517392268                       # number of overall miss cycles
system.cpu1.dcache.ReadReq_accesses::switch_cpus1.data     10771941                       # number of ReadReq accesses(hits+misses)
system.cpu1.dcache.ReadReq_accesses::total     10771941                       # number of ReadReq accesses(hits+misses)
system.cpu1.dcache.WriteReq_accesses::switch_cpus1.data      7200777                       # number of WriteReq accesses(hits+misses)
system.cpu1.dcache.WriteReq_accesses::total      7200777                       # number of WriteReq accesses(hits+misses)
system.cpu1.dcache.LoadLockedReq_accesses::switch_cpus1.data        17250                       # number of LoadLockedReq accesses(hits+misses)
system.cpu1.dcache.LoadLockedReq_accesses::total        17250                       # number of LoadLockedReq accesses(hits+misses)
system.cpu1.dcache.StoreCondReq_accesses::switch_cpus1.data        17250                       # number of StoreCondReq accesses(hits+misses)
system.cpu1.dcache.StoreCondReq_accesses::total        17250                       # number of StoreCondReq accesses(hits+misses)
system.cpu1.dcache.demand_accesses::switch_cpus1.data     17972718                       # number of demand (read+write) accesses
system.cpu1.dcache.demand_accesses::total     17972718                       # number of demand (read+write) accesses
system.cpu1.dcache.overall_accesses::switch_cpus1.data     17972718                       # number of overall (read+write) accesses
system.cpu1.dcache.overall_accesses::total     17972718                       # number of overall (read+write) accesses
system.cpu1.dcache.ReadReq_miss_rate::switch_cpus1.data     0.009525                       # miss rate for ReadReq accesses
system.cpu1.dcache.ReadReq_miss_rate::total     0.009525                       # miss rate for ReadReq accesses
system.cpu1.dcache.demand_miss_rate::switch_cpus1.data     0.005709                       # miss rate for demand accesses
system.cpu1.dcache.demand_miss_rate::total     0.005709                       # miss rate for demand accesses
system.cpu1.dcache.overall_miss_rate::switch_cpus1.data     0.005709                       # miss rate for overall accesses
system.cpu1.dcache.overall_miss_rate::total     0.005709                       # miss rate for overall accesses
system.cpu1.dcache.ReadReq_avg_miss_latency::switch_cpus1.data 34280.571000                       # average ReadReq miss latency
system.cpu1.dcache.ReadReq_avg_miss_latency::total 34280.571000                       # average ReadReq miss latency
system.cpu1.dcache.demand_avg_miss_latency::switch_cpus1.data 34280.571000                       # average overall miss latency
system.cpu1.dcache.demand_avg_miss_latency::total 34280.571000                       # average overall miss latency
system.cpu1.dcache.overall_avg_miss_latency::switch_cpus1.data 34280.571000                       # average overall miss latency
system.cpu1.dcache.overall_avg_miss_latency::total 34280.571000                       # average overall miss latency
system.cpu1.dcache.blocked_cycles::no_mshrs            0                       # number of cycles access was blocked
system.cpu1.dcache.blocked_cycles::no_targets            0                       # number of cycles access was blocked
system.cpu1.dcache.blocked::no_mshrs                0                       # number of cycles access was blocked
system.cpu1.dcache.blocked::no_targets              0                       # number of cycles access was blocked
system.cpu1.dcache.avg_blocked_cycles::no_mshrs          nan                       # average number of cycles each access was blocked
system.cpu1.dcache.avg_blocked_cycles::no_targets          nan                       # average number of cycles each access was blocked
system.cpu1.dcache.fast_writes                      0                       # number of fast writes performed
system.cpu1.dcache.cache_copies                     0                       # number of cache copies performed
system.cpu1.dcache.writebacks::writebacks        10907                       # number of writebacks
system.cpu1.dcache.writebacks::total            10907                       # number of writebacks
system.cpu1.dcache.ReadReq_mshr_hits::switch_cpus1.data        62878                       # number of ReadReq MSHR hits
system.cpu1.dcache.ReadReq_mshr_hits::total        62878                       # number of ReadReq MSHR hits
system.cpu1.dcache.demand_mshr_hits::switch_cpus1.data        62878                       # number of demand (read+write) MSHR hits
system.cpu1.dcache.demand_mshr_hits::total        62878                       # number of demand (read+write) MSHR hits
system.cpu1.dcache.overall_mshr_hits::switch_cpus1.data        62878                       # number of overall MSHR hits
system.cpu1.dcache.overall_mshr_hits::total        62878                       # number of overall MSHR hits
system.cpu1.dcache.ReadReq_mshr_misses::switch_cpus1.data        39728                       # number of ReadReq MSHR misses
system.cpu1.dcache.ReadReq_mshr_misses::total        39728                       # number of ReadReq MSHR misses
system.cpu1.dcache.demand_mshr_misses::switch_cpus1.data        39728                       # number of demand (read+write) MSHR misses
system.cpu1.dcache.demand_mshr_misses::total        39728                       # number of demand (read+write) MSHR misses
system.cpu1.dcache.overall_mshr_misses::switch_cpus1.data        39728                       # number of overall MSHR misses
system.cpu1.dcache.overall_mshr_misses::total        39728                       # number of overall MSHR misses
system.cpu1.dcache.ReadReq_mshr_miss_latency::switch_cpus1.data    554335005                       # number of ReadReq MSHR miss cycles
system.cpu1.dcache.ReadReq_mshr_miss_latency::total    554335005                       # number of ReadReq MSHR miss cycles
system.cpu1.dcache.demand_mshr_miss_latency::switch_cpus1.data    554335005                       # number of demand (read+write) MSHR miss cycles
system.cpu1.dcache.demand_mshr_miss_latency::total    554335005                       # number of demand (read+write) MSHR miss cycles
system.cpu1.dcache.overall_mshr_miss_latency::switch_cpus1.data    554335005                       # number of overall MSHR miss cycles
system.cpu1.dcache.overall_mshr_miss_latency::total    554335005                       # number of overall MSHR miss cycles
system.cpu1.dcache.ReadReq_mshr_miss_rate::switch_cpus1.data     0.003688                       # mshr miss rate for ReadReq accesses
system.cpu1.dcache.ReadReq_mshr_miss_rate::total     0.003688                       # mshr miss rate for ReadReq accesses
system.cpu1.dcache.demand_mshr_miss_rate::switch_cpus1.data     0.002210                       # mshr miss rate for demand accesses
system.cpu1.dcache.demand_mshr_miss_rate::total     0.002210                       # mshr miss rate for demand accesses
system.cpu1.dcache.overall_mshr_miss_rate::switch_cpus1.data     0.002210                       # mshr miss rate for overall accesses
system.cpu1.dcache.overall_mshr_miss_rate::total     0.002210                       # mshr miss rate for overall accesses
system.cpu1.dcache.ReadReq_avg_mshr_miss_latency::switch_cpus1.data 13953.257274                       # average ReadReq mshr miss latency
system.cpu1.dcache.ReadReq_avg_mshr_miss_latency::total 13953.257274                       # average ReadReq mshr miss latency
system.cpu1.dcache.demand_avg_mshr_miss_latency::switch_cpus1.data 13953.257274                       # average overall mshr miss latency
system.cpu1.dcache.demand_avg_mshr_miss_latency::total 13953.257274                       # average overall mshr miss latency
system.cpu1.dcache.overall_avg_mshr_miss_latency::switch_cpus1.data 13953.257274                       # average overall mshr miss latency
system.cpu1.dcache.overall_avg_mshr_miss_latency::total 13953.257274                       # average overall mshr miss latency
system.cpu1.dcache.no_allocate_misses               0                       # Number of misses that were no-allocate

---------- End Simulation Statistics   ----------
