
---------- Begin Simulation Statistics ----------
sim_seconds                                  0.105489                       # Number of seconds simulated
sim_ticks                                105489047529                       # Number of ticks simulated
final_tick                               632591110437                       # Number of ticks from beginning of simulation (restored from checkpoints and never reset)
sim_freq                                 1000000000000                       # Frequency of simulated ticks
host_inst_rate                                 171032                       # Simulator instruction rate (inst/s)
host_op_rate                                   218352                       # Simulator op (including micro ops) rate (op/s)
host_tick_rate                                2081793                       # Simulator tick rate (ticks/s)
host_mem_usage                               67345512                       # Number of bytes of host memory used
host_seconds                                 50672.21                       # Real time elapsed on the host
sim_insts                                  8666581010                       # Number of instructions simulated
sim_ops                                   11064368707                       # Number of ops (including micro ops) simulated
system.physmem.bytes_read::switch_cpus0.inst         4736                       # Number of bytes read from this memory
system.physmem.bytes_read::switch_cpus0.data      1840768                       # Number of bytes read from this memory
system.physmem.bytes_read::switch_cpus1.inst         5120                       # Number of bytes read from this memory
system.physmem.bytes_read::switch_cpus1.data      3096704                       # Number of bytes read from this memory
system.physmem.bytes_read::switch_cpus2.inst         4608                       # Number of bytes read from this memory
system.physmem.bytes_read::switch_cpus2.data      1858816                       # Number of bytes read from this memory
system.physmem.bytes_read::switch_cpus3.inst         4352                       # Number of bytes read from this memory
system.physmem.bytes_read::switch_cpus3.data      1920384                       # Number of bytes read from this memory
system.physmem.bytes_read::switch_cpus4.inst         4864                       # Number of bytes read from this memory
system.physmem.bytes_read::switch_cpus4.data      2723584                       # Number of bytes read from this memory
system.physmem.bytes_read::switch_cpus5.inst         4352                       # Number of bytes read from this memory
system.physmem.bytes_read::switch_cpus5.data      1915904                       # Number of bytes read from this memory
system.physmem.bytes_read::switch_cpus6.inst         4224                       # Number of bytes read from this memory
system.physmem.bytes_read::switch_cpus6.data      1022464                       # Number of bytes read from this memory
system.physmem.bytes_read::switch_cpus7.inst         4992                       # Number of bytes read from this memory
system.physmem.bytes_read::switch_cpus7.data      1314944                       # Number of bytes read from this memory
system.physmem.bytes_read::total             15730816                       # Number of bytes read from this memory
system.physmem.bytes_inst_read::switch_cpus0.inst         4736                       # Number of instructions bytes read from this memory
system.physmem.bytes_inst_read::switch_cpus1.inst         5120                       # Number of instructions bytes read from this memory
system.physmem.bytes_inst_read::switch_cpus2.inst         4608                       # Number of instructions bytes read from this memory
system.physmem.bytes_inst_read::switch_cpus3.inst         4352                       # Number of instructions bytes read from this memory
system.physmem.bytes_inst_read::switch_cpus4.inst         4864                       # Number of instructions bytes read from this memory
system.physmem.bytes_inst_read::switch_cpus5.inst         4352                       # Number of instructions bytes read from this memory
system.physmem.bytes_inst_read::switch_cpus6.inst         4224                       # Number of instructions bytes read from this memory
system.physmem.bytes_inst_read::switch_cpus7.inst         4992                       # Number of instructions bytes read from this memory
system.physmem.bytes_inst_read::total           37248                       # Number of instructions bytes read from this memory
system.physmem.bytes_written::writebacks      5090432                       # Number of bytes written to this memory
system.physmem.bytes_written::total           5090432                       # Number of bytes written to this memory
system.physmem.num_reads::switch_cpus0.inst           37                       # Number of read requests responded to by this memory
system.physmem.num_reads::switch_cpus0.data        14381                       # Number of read requests responded to by this memory
system.physmem.num_reads::switch_cpus1.inst           40                       # Number of read requests responded to by this memory
system.physmem.num_reads::switch_cpus1.data        24193                       # Number of read requests responded to by this memory
system.physmem.num_reads::switch_cpus2.inst           36                       # Number of read requests responded to by this memory
system.physmem.num_reads::switch_cpus2.data        14522                       # Number of read requests responded to by this memory
system.physmem.num_reads::switch_cpus3.inst           34                       # Number of read requests responded to by this memory
system.physmem.num_reads::switch_cpus3.data        15003                       # Number of read requests responded to by this memory
system.physmem.num_reads::switch_cpus4.inst           38                       # Number of read requests responded to by this memory
system.physmem.num_reads::switch_cpus4.data        21278                       # Number of read requests responded to by this memory
system.physmem.num_reads::switch_cpus5.inst           34                       # Number of read requests responded to by this memory
system.physmem.num_reads::switch_cpus5.data        14968                       # Number of read requests responded to by this memory
system.physmem.num_reads::switch_cpus6.inst           33                       # Number of read requests responded to by this memory
system.physmem.num_reads::switch_cpus6.data         7988                       # Number of read requests responded to by this memory
system.physmem.num_reads::switch_cpus7.inst           39                       # Number of read requests responded to by this memory
system.physmem.num_reads::switch_cpus7.data        10273                       # Number of read requests responded to by this memory
system.physmem.num_reads::total                122897                       # Number of read requests responded to by this memory
system.physmem.num_writes::writebacks           39769                       # Number of write requests responded to by this memory
system.physmem.num_writes::functional               0                       # Number of write requests responded to by this memory
system.physmem.num_writes::interrupt                0                       # Number of write requests responded to by this memory
system.physmem.num_writes::switch_cpus0.dtb.walker            0                       # Number of write requests responded to by this memory
system.physmem.num_writes::switch_cpus0.itb.walker            0                       # Number of write requests responded to by this memory
system.physmem.num_writes::switch_cpus0.inst            0                       # Number of write requests responded to by this memory
system.physmem.num_writes::switch_cpus0.data            0                       # Number of write requests responded to by this memory
system.physmem.num_writes::switch_cpus1.dtb.walker            0                       # Number of write requests responded to by this memory
system.physmem.num_writes::switch_cpus1.itb.walker            0                       # Number of write requests responded to by this memory
system.physmem.num_writes::switch_cpus1.inst            0                       # Number of write requests responded to by this memory
system.physmem.num_writes::switch_cpus1.data            0                       # Number of write requests responded to by this memory
system.physmem.num_writes::switch_cpus2.dtb.walker            0                       # Number of write requests responded to by this memory
system.physmem.num_writes::switch_cpus2.itb.walker            0                       # Number of write requests responded to by this memory
system.physmem.num_writes::switch_cpus2.inst            0                       # Number of write requests responded to by this memory
system.physmem.num_writes::switch_cpus2.data            0                       # Number of write requests responded to by this memory
system.physmem.num_writes::switch_cpus3.dtb.walker            0                       # Number of write requests responded to by this memory
system.physmem.num_writes::switch_cpus3.itb.walker            0                       # Number of write requests responded to by this memory
system.physmem.num_writes::switch_cpus3.inst            0                       # Number of write requests responded to by this memory
system.physmem.num_writes::switch_cpus3.data            0                       # Number of write requests responded to by this memory
system.physmem.num_writes::switch_cpus4.dtb.walker            0                       # Number of write requests responded to by this memory
system.physmem.num_writes::switch_cpus4.itb.walker            0                       # Number of write requests responded to by this memory
system.physmem.num_writes::switch_cpus4.inst            0                       # Number of write requests responded to by this memory
system.physmem.num_writes::switch_cpus4.data            0                       # Number of write requests responded to by this memory
system.physmem.num_writes::switch_cpus5.dtb.walker            0                       # Number of write requests responded to by this memory
system.physmem.num_writes::switch_cpus5.itb.walker            0                       # Number of write requests responded to by this memory
system.physmem.num_writes::switch_cpus5.inst            0                       # Number of write requests responded to by this memory
system.physmem.num_writes::switch_cpus5.data            0                       # Number of write requests responded to by this memory
system.physmem.num_writes::switch_cpus6.dtb.walker            0                       # Number of write requests responded to by this memory
system.physmem.num_writes::switch_cpus6.itb.walker            0                       # Number of write requests responded to by this memory
system.physmem.num_writes::switch_cpus6.inst            0                       # Number of write requests responded to by this memory
system.physmem.num_writes::switch_cpus6.data            0                       # Number of write requests responded to by this memory
system.physmem.num_writes::switch_cpus7.dtb.walker            0                       # Number of write requests responded to by this memory
system.physmem.num_writes::switch_cpus7.itb.walker            0                       # Number of write requests responded to by this memory
system.physmem.num_writes::switch_cpus7.inst            0                       # Number of write requests responded to by this memory
system.physmem.num_writes::switch_cpus7.data            0                       # Number of write requests responded to by this memory
system.physmem.num_writes::cpu0.dtb.walker            0                       # Number of write requests responded to by this memory
system.physmem.num_writes::cpu0.itb.walker            0                       # Number of write requests responded to by this memory
system.physmem.num_writes::cpu0.inst                0                       # Number of write requests responded to by this memory
system.physmem.num_writes::cpu0.data                0                       # Number of write requests responded to by this memory
system.physmem.num_writes::cpu1.dtb.walker            0                       # Number of write requests responded to by this memory
system.physmem.num_writes::cpu1.itb.walker            0                       # Number of write requests responded to by this memory
system.physmem.num_writes::cpu1.inst                0                       # Number of write requests responded to by this memory
system.physmem.num_writes::cpu1.data                0                       # Number of write requests responded to by this memory
system.physmem.num_writes::cpu2.dtb.walker            0                       # Number of write requests responded to by this memory
system.physmem.num_writes::cpu2.itb.walker            0                       # Number of write requests responded to by this memory
system.physmem.num_writes::cpu2.inst                0                       # Number of write requests responded to by this memory
system.physmem.num_writes::cpu2.data                0                       # Number of write requests responded to by this memory
system.physmem.num_writes::cpu3.dtb.walker            0                       # Number of write requests responded to by this memory
system.physmem.num_writes::cpu3.itb.walker            0                       # Number of write requests responded to by this memory
system.physmem.num_writes::cpu3.inst                0                       # Number of write requests responded to by this memory
system.physmem.num_writes::cpu3.data                0                       # Number of write requests responded to by this memory
system.physmem.num_writes::cpu4.dtb.walker            0                       # Number of write requests responded to by this memory
system.physmem.num_writes::cpu4.itb.walker            0                       # Number of write requests responded to by this memory
system.physmem.num_writes::cpu4.inst                0                       # Number of write requests responded to by this memory
system.physmem.num_writes::cpu4.data                0                       # Number of write requests responded to by this memory
system.physmem.num_writes::cpu5.dtb.walker            0                       # Number of write requests responded to by this memory
system.physmem.num_writes::cpu5.itb.walker            0                       # Number of write requests responded to by this memory
system.physmem.num_writes::cpu5.inst                0                       # Number of write requests responded to by this memory
system.physmem.num_writes::cpu5.data                0                       # Number of write requests responded to by this memory
system.physmem.num_writes::cpu6.dtb.walker            0                       # Number of write requests responded to by this memory
system.physmem.num_writes::cpu6.itb.walker            0                       # Number of write requests responded to by this memory
system.physmem.num_writes::cpu6.inst                0                       # Number of write requests responded to by this memory
system.physmem.num_writes::cpu6.data                0                       # Number of write requests responded to by this memory
system.physmem.num_writes::cpu7.dtb.walker            0                       # Number of write requests responded to by this memory
system.physmem.num_writes::cpu7.itb.walker            0                       # Number of write requests responded to by this memory
system.physmem.num_writes::cpu7.inst                0                       # Number of write requests responded to by this memory
system.physmem.num_writes::cpu7.data                0                       # Number of write requests responded to by this memory
system.physmem.num_writes::total                39769                       # Number of write requests responded to by this memory
system.physmem.bw_read::switch_cpus0.inst        44896                       # Total read bandwidth from this memory (bytes/s)
system.physmem.bw_read::switch_cpus0.data     17449849                       # Total read bandwidth from this memory (bytes/s)
system.physmem.bw_read::switch_cpus1.inst        48536                       # Total read bandwidth from this memory (bytes/s)
system.physmem.bw_read::switch_cpus1.data     29355692                       # Total read bandwidth from this memory (bytes/s)
system.physmem.bw_read::switch_cpus2.inst        43682                       # Total read bandwidth from this memory (bytes/s)
system.physmem.bw_read::switch_cpus2.data     17620938                       # Total read bandwidth from this memory (bytes/s)
system.physmem.bw_read::switch_cpus3.inst        41255                       # Total read bandwidth from this memory (bytes/s)
system.physmem.bw_read::switch_cpus3.data     18204582                       # Total read bandwidth from this memory (bytes/s)
system.physmem.bw_read::switch_cpus4.inst        46109                       # Total read bandwidth from this memory (bytes/s)
system.physmem.bw_read::switch_cpus4.data     25818642                       # Total read bandwidth from this memory (bytes/s)
system.physmem.bw_read::switch_cpus5.inst        41255                       # Total read bandwidth from this memory (bytes/s)
system.physmem.bw_read::switch_cpus5.data     18162113                       # Total read bandwidth from this memory (bytes/s)
system.physmem.bw_read::switch_cpus6.inst        40042                       # Total read bandwidth from this memory (bytes/s)
system.physmem.bw_read::switch_cpus6.data      9692608                       # Total read bandwidth from this memory (bytes/s)
system.physmem.bw_read::switch_cpus7.inst        47322                       # Total read bandwidth from this memory (bytes/s)
system.physmem.bw_read::switch_cpus7.data     12465218                       # Total read bandwidth from this memory (bytes/s)
system.physmem.bw_read::total               149122742                       # Total read bandwidth from this memory (bytes/s)
system.physmem.bw_inst_read::switch_cpus0.inst        44896                       # Instruction read bandwidth from this memory (bytes/s)
system.physmem.bw_inst_read::switch_cpus1.inst        48536                       # Instruction read bandwidth from this memory (bytes/s)
system.physmem.bw_inst_read::switch_cpus2.inst        43682                       # Instruction read bandwidth from this memory (bytes/s)
system.physmem.bw_inst_read::switch_cpus3.inst        41255                       # Instruction read bandwidth from this memory (bytes/s)
system.physmem.bw_inst_read::switch_cpus4.inst        46109                       # Instruction read bandwidth from this memory (bytes/s)
system.physmem.bw_inst_read::switch_cpus5.inst        41255                       # Instruction read bandwidth from this memory (bytes/s)
system.physmem.bw_inst_read::switch_cpus6.inst        40042                       # Instruction read bandwidth from this memory (bytes/s)
system.physmem.bw_inst_read::switch_cpus7.inst        47322                       # Instruction read bandwidth from this memory (bytes/s)
system.physmem.bw_inst_read::total             353098                       # Instruction read bandwidth from this memory (bytes/s)
system.physmem.bw_write::writebacks          48255550                       # Write bandwidth from this memory (bytes/s)
system.physmem.bw_write::total               48255550                       # Write bandwidth from this memory (bytes/s)
system.physmem.bw_total::writebacks          48255550                       # Total bandwidth to/from this memory (bytes/s)
system.physmem.bw_total::switch_cpus0.inst        44896                       # Total bandwidth to/from this memory (bytes/s)
system.physmem.bw_total::switch_cpus0.data     17449849                       # Total bandwidth to/from this memory (bytes/s)
system.physmem.bw_total::switch_cpus1.inst        48536                       # Total bandwidth to/from this memory (bytes/s)
system.physmem.bw_total::switch_cpus1.data     29355692                       # Total bandwidth to/from this memory (bytes/s)
system.physmem.bw_total::switch_cpus2.inst        43682                       # Total bandwidth to/from this memory (bytes/s)
system.physmem.bw_total::switch_cpus2.data     17620938                       # Total bandwidth to/from this memory (bytes/s)
system.physmem.bw_total::switch_cpus3.inst        41255                       # Total bandwidth to/from this memory (bytes/s)
system.physmem.bw_total::switch_cpus3.data     18204582                       # Total bandwidth to/from this memory (bytes/s)
system.physmem.bw_total::switch_cpus4.inst        46109                       # Total bandwidth to/from this memory (bytes/s)
system.physmem.bw_total::switch_cpus4.data     25818642                       # Total bandwidth to/from this memory (bytes/s)
system.physmem.bw_total::switch_cpus5.inst        41255                       # Total bandwidth to/from this memory (bytes/s)
system.physmem.bw_total::switch_cpus5.data     18162113                       # Total bandwidth to/from this memory (bytes/s)
system.physmem.bw_total::switch_cpus6.inst        40042                       # Total bandwidth to/from this memory (bytes/s)
system.physmem.bw_total::switch_cpus6.data      9692608                       # Total bandwidth to/from this memory (bytes/s)
system.physmem.bw_total::switch_cpus7.inst        47322                       # Total bandwidth to/from this memory (bytes/s)
system.physmem.bw_total::switch_cpus7.data     12465218                       # Total bandwidth to/from this memory (bytes/s)
system.physmem.bw_total::total              197378292                       # Total bandwidth to/from this memory (bytes/s)
system.switch_cpus0.dtb.inst_hits                   0                       # ITB inst hits
system.switch_cpus0.dtb.inst_misses                 0                       # ITB inst misses
system.switch_cpus0.dtb.read_hits                   0                       # DTB read hits
system.switch_cpus0.dtb.read_misses                 0                       # DTB read misses
system.switch_cpus0.dtb.write_hits                  0                       # DTB write hits
system.switch_cpus0.dtb.write_misses                0                       # DTB write misses
system.switch_cpus0.dtb.flush_tlb                   0                       # Number of times complete TLB was flushed
system.switch_cpus0.dtb.flush_tlb_mva               0                       # Number of times TLB was flushed by MVA
system.switch_cpus0.dtb.flush_tlb_mva_asid            0                       # Number of times TLB was flushed by MVA & ASID
system.switch_cpus0.dtb.flush_tlb_asid              0                       # Number of times TLB was flushed by ASID
system.switch_cpus0.dtb.flush_entries               0                       # Number of entries that have been flushed from TLB
system.switch_cpus0.dtb.align_faults                0                       # Number of TLB faults due to alignment restrictions
system.switch_cpus0.dtb.prefetch_faults             0                       # Number of TLB faults due to prefetch
system.switch_cpus0.dtb.domain_faults               0                       # Number of TLB faults due to domain restrictions
system.switch_cpus0.dtb.perms_faults                0                       # Number of TLB faults due to permissions restrictions
system.switch_cpus0.dtb.read_accesses               0                       # DTB read accesses
system.switch_cpus0.dtb.write_accesses              0                       # DTB write accesses
system.switch_cpus0.dtb.inst_accesses               0                       # ITB inst accesses
system.switch_cpus0.dtb.hits                        0                       # DTB hits
system.switch_cpus0.dtb.misses                      0                       # DTB misses
system.switch_cpus0.dtb.accesses                    0                       # DTB accesses
system.switch_cpus0.itb.inst_hits                   0                       # ITB inst hits
system.switch_cpus0.itb.inst_misses                 0                       # ITB inst misses
system.switch_cpus0.itb.read_hits                   0                       # DTB read hits
system.switch_cpus0.itb.read_misses                 0                       # DTB read misses
system.switch_cpus0.itb.write_hits                  0                       # DTB write hits
system.switch_cpus0.itb.write_misses                0                       # DTB write misses
system.switch_cpus0.itb.flush_tlb                   0                       # Number of times complete TLB was flushed
system.switch_cpus0.itb.flush_tlb_mva               0                       # Number of times TLB was flushed by MVA
system.switch_cpus0.itb.flush_tlb_mva_asid            0                       # Number of times TLB was flushed by MVA & ASID
system.switch_cpus0.itb.flush_tlb_asid              0                       # Number of times TLB was flushed by ASID
system.switch_cpus0.itb.flush_entries               0                       # Number of entries that have been flushed from TLB
system.switch_cpus0.itb.align_faults                0                       # Number of TLB faults due to alignment restrictions
system.switch_cpus0.itb.prefetch_faults             0                       # Number of TLB faults due to prefetch
system.switch_cpus0.itb.domain_faults               0                       # Number of TLB faults due to domain restrictions
system.switch_cpus0.itb.perms_faults                0                       # Number of TLB faults due to permissions restrictions
system.switch_cpus0.itb.read_accesses               0                       # DTB read accesses
system.switch_cpus0.itb.write_accesses              0                       # DTB write accesses
system.switch_cpus0.itb.inst_accesses               0                       # ITB inst accesses
system.switch_cpus0.itb.hits                        0                       # DTB hits
system.switch_cpus0.itb.misses                      0                       # DTB misses
system.switch_cpus0.itb.accesses                    0                       # DTB accesses
system.cpu0.workload.num_syscalls                  52                       # Number of system calls
system.switch_cpus0.numCycles               252971338                       # number of cpu cycles simulated
system.switch_cpus0.numWorkItemsStarted             0                       # number of work items this cpu started
system.switch_cpus0.numWorkItemsCompleted            0                       # number of work items this cpu completed
system.switch_cpus0.BPredUnit.lookups        20692216                       # Number of BP lookups
system.switch_cpus0.BPredUnit.condPredicted     16968559                       # Number of conditional branches predicted
system.switch_cpus0.BPredUnit.condIncorrect      2024235                       # Number of conditional branches incorrect
system.switch_cpus0.BPredUnit.BTBLookups      8578629                       # Number of BTB lookups
system.switch_cpus0.BPredUnit.BTBHits         8091176                       # Number of BTB hits
system.switch_cpus0.BPredUnit.BTBCorrect            0                       # Number of correct BTB predictions (this stat may not work properly.
system.switch_cpus0.BPredUnit.usedRAS         2122573                       # Number of times the RAS was used to get a target.
system.switch_cpus0.BPredUnit.RASInCorrect        91109                       # Number of incorrect RAS predictions.
system.switch_cpus0.fetch.icacheStallCycles    197412328                       # Number of cycles fetch is stalled on an Icache miss
system.switch_cpus0.fetch.Insts             117602877                       # Number of instructions fetch has processed
system.switch_cpus0.fetch.Branches           20692216                       # Number of branches that fetch encountered
system.switch_cpus0.fetch.predictedBranches     10213749                       # Number of branches that fetch has predicted taken
system.switch_cpus0.fetch.Cycles             25869470                       # Number of cycles fetch has run and was not squashing or blocked
system.switch_cpus0.fetch.SquashCycles        5744172                       # Number of cycles fetch has spent squashing
system.switch_cpus0.fetch.BlockedCycles       5976302                       # Number of cycles fetch has spent blocked
system.switch_cpus0.fetch.CacheLines         12160571                       # Number of cache lines fetched
system.switch_cpus0.fetch.IcacheSquashes      2008812                       # Number of outstanding Icache misses that were squashed
system.switch_cpus0.fetch.rateDist::samples    232946657                       # Number of instructions fetched each cycle (Total)
system.switch_cpus0.fetch.rateDist::mean     0.617288                       # Number of instructions fetched each cycle (Total)
system.switch_cpus0.fetch.rateDist::stdev     1.968994                       # Number of instructions fetched each cycle (Total)
system.switch_cpus0.fetch.rateDist::underflows            0      0.00%      0.00% # Number of instructions fetched each cycle (Total)
system.switch_cpus0.fetch.rateDist::0       207077187     88.89%     88.89% # Number of instructions fetched each cycle (Total)
system.switch_cpus0.fetch.rateDist::1         2803065      1.20%     90.10% # Number of instructions fetched each cycle (Total)
system.switch_cpus0.fetch.rateDist::2         3238233      1.39%     91.49% # Number of instructions fetched each cycle (Total)
system.switch_cpus0.fetch.rateDist::3         1781792      0.76%     92.25% # Number of instructions fetched each cycle (Total)
system.switch_cpus0.fetch.rateDist::4         2070223      0.89%     93.14% # Number of instructions fetched each cycle (Total)
system.switch_cpus0.fetch.rateDist::5         1126249      0.48%     93.63% # Number of instructions fetched each cycle (Total)
system.switch_cpus0.fetch.rateDist::6          766893      0.33%     93.95% # Number of instructions fetched each cycle (Total)
system.switch_cpus0.fetch.rateDist::7         2007374      0.86%     94.82% # Number of instructions fetched each cycle (Total)
system.switch_cpus0.fetch.rateDist::8        12075641      5.18%    100.00% # Number of instructions fetched each cycle (Total)
system.switch_cpus0.fetch.rateDist::overflows            0      0.00%    100.00% # Number of instructions fetched each cycle (Total)
system.switch_cpus0.fetch.rateDist::min_value            0                       # Number of instructions fetched each cycle (Total)
system.switch_cpus0.fetch.rateDist::max_value            8                       # Number of instructions fetched each cycle (Total)
system.switch_cpus0.fetch.rateDist::total    232946657                       # Number of instructions fetched each cycle (Total)
system.switch_cpus0.fetch.branchRate         0.081797                       # Number of branch fetches per cycle
system.switch_cpus0.fetch.rate               0.464886                       # Number of inst fetches per cycle
system.switch_cpus0.decode.IdleCycles       195832996                       # Number of cycles decode is idle
system.switch_cpus0.decode.BlockedCycles      7585709                       # Number of cycles decode is blocked
system.switch_cpus0.decode.RunCycles         25664302                       # Number of cycles decode is running
system.switch_cpus0.decode.UnblockCycles       193984                       # Number of cycles decode is unblocking
system.switch_cpus0.decode.SquashCycles       3669660                       # Number of cycles decode is squashing
system.switch_cpus0.decode.BranchResolved      3359184                       # Number of times decode resolved a branch
system.switch_cpus0.decode.BranchMispred        18897                       # Number of times decode detected a branch misprediction
system.switch_cpus0.decode.DecodedInsts     143565303                       # Number of instructions handled by decode
system.switch_cpus0.decode.SquashedInsts        93429                       # Number of squashed instructions handled by decode
system.switch_cpus0.rename.SquashCycles       3669660                       # Number of cycles rename is squashing
system.switch_cpus0.rename.IdleCycles       196134957                       # Number of cycles rename is idle
system.switch_cpus0.rename.BlockCycles        2805999                       # Number of cycles rename is blocking
system.switch_cpus0.rename.serializeStallCycles      3923057                       # count of cycles rename stalled for serializing inst
system.switch_cpus0.rename.RunCycles         25569098                       # Number of cycles rename is running
system.switch_cpus0.rename.UnblockCycles       843880                       # Number of cycles rename is unblocking
system.switch_cpus0.rename.RenamedInsts     143478030                       # Number of instructions processed by rename
system.switch_cpus0.rename.ROBFullEvents          203                       # Number of times rename has blocked due to ROB full
system.switch_cpus0.rename.IQFullEvents        222920                       # Number of times rename has blocked due to IQ full
system.switch_cpus0.rename.LSQFullEvents       392687                       # Number of times rename has blocked due to LSQ full
system.switch_cpus0.rename.RenamedOperands    199390131                       # Number of destination operands rename has renamed
system.switch_cpus0.rename.RenameLookups    668075910                       # Number of register rename lookups that rename has made
system.switch_cpus0.rename.int_rename_lookups    668075910                       # Number of integer rename lookups
system.switch_cpus0.rename.CommittedMaps    170291697                       # Number of HB maps that are committed
system.switch_cpus0.rename.UndoneMaps        29098407                       # Number of HB maps that are undone due to squashing
system.switch_cpus0.rename.serializingInsts        37450                       # count of serializing insts renamed
system.switch_cpus0.rename.tempSerializingInsts        20840                       # count of temporary serializing insts renamed
system.switch_cpus0.rename.skidInsts          2251420                       # count of insts added to the skid buffer
system.switch_cpus0.memDep0.insertedLoads     13690944                       # Number of loads inserted to the mem dependence unit.
system.switch_cpus0.memDep0.insertedStores      7464509                       # Number of stores inserted to the mem dependence unit.
system.switch_cpus0.memDep0.conflictingLoads       197791                       # Number of conflicting loads.
system.switch_cpus0.memDep0.conflictingStores      1654822                       # Number of conflicting stores.
system.switch_cpus0.iq.iqInstsAdded         143267953                       # Number of instructions added to the IQ (excludes non-spec)
system.switch_cpus0.iq.iqNonSpecInstsAdded        37522                       # Number of non-speculative instructions added to the IQ
system.switch_cpus0.iq.iqInstsIssued        135393391                       # Number of instructions issued
system.switch_cpus0.iq.iqSquashedInstsIssued       187555                       # Number of squashed instructions issued
system.switch_cpus0.iq.iqSquashedInstsExamined     17910568                       # Number of squashed instructions iterated over during squash; mainly for profiling
system.switch_cpus0.iq.iqSquashedOperandsExamined     41393679                       # Number of squashed operands that are examined and possibly removed from graph
system.switch_cpus0.iq.iqSquashedNonSpecRemoved         4073                       # Number of squashed non-spec instructions that were removed
system.switch_cpus0.iq.issued_per_cycle::samples    232946657                       # Number of insts issued each cycle
system.switch_cpus0.iq.issued_per_cycle::mean     0.581221                       # Number of insts issued each cycle
system.switch_cpus0.iq.issued_per_cycle::stdev     1.270437                       # Number of insts issued each cycle
system.switch_cpus0.iq.issued_per_cycle::underflows            0      0.00%      0.00% # Number of insts issued each cycle
system.switch_cpus0.iq.issued_per_cycle::0    175898361     75.51%     75.51% # Number of insts issued each cycle
system.switch_cpus0.iq.issued_per_cycle::1     22943543      9.85%     85.36% # Number of insts issued each cycle
system.switch_cpus0.iq.issued_per_cycle::2     12324477      5.29%     90.65% # Number of insts issued each cycle
system.switch_cpus0.iq.issued_per_cycle::3      8539513      3.67%     94.32% # Number of insts issued each cycle
system.switch_cpus0.iq.issued_per_cycle::4      7462355      3.20%     97.52% # Number of insts issued each cycle
system.switch_cpus0.iq.issued_per_cycle::5      3824578      1.64%     99.16% # Number of insts issued each cycle
system.switch_cpus0.iq.issued_per_cycle::6       913143      0.39%     99.55% # Number of insts issued each cycle
system.switch_cpus0.iq.issued_per_cycle::7       594309      0.26%     99.81% # Number of insts issued each cycle
system.switch_cpus0.iq.issued_per_cycle::8       446378      0.19%    100.00% # Number of insts issued each cycle
system.switch_cpus0.iq.issued_per_cycle::overflows            0      0.00%    100.00% # Number of insts issued each cycle
system.switch_cpus0.iq.issued_per_cycle::min_value            0                       # Number of insts issued each cycle
system.switch_cpus0.iq.issued_per_cycle::max_value            8                       # Number of insts issued each cycle
system.switch_cpus0.iq.issued_per_cycle::total    232946657                       # Number of insts issued each cycle
system.switch_cpus0.iq.fu_full::No_OpClass            0      0.00%      0.00% # attempts to use FU when none available
system.switch_cpus0.iq.fu_full::IntAlu          35858     12.22%     12.22% # attempts to use FU when none available
system.switch_cpus0.iq.fu_full::IntMult             0      0.00%     12.22% # attempts to use FU when none available
system.switch_cpus0.iq.fu_full::IntDiv              0      0.00%     12.22% # attempts to use FU when none available
system.switch_cpus0.iq.fu_full::FloatAdd            0      0.00%     12.22% # attempts to use FU when none available
system.switch_cpus0.iq.fu_full::FloatCmp            0      0.00%     12.22% # attempts to use FU when none available
system.switch_cpus0.iq.fu_full::FloatCvt            0      0.00%     12.22% # attempts to use FU when none available
system.switch_cpus0.iq.fu_full::FloatMult            0      0.00%     12.22% # attempts to use FU when none available
system.switch_cpus0.iq.fu_full::FloatDiv            0      0.00%     12.22% # attempts to use FU when none available
system.switch_cpus0.iq.fu_full::FloatSqrt            0      0.00%     12.22% # attempts to use FU when none available
system.switch_cpus0.iq.fu_full::SimdAdd             0      0.00%     12.22% # attempts to use FU when none available
system.switch_cpus0.iq.fu_full::SimdAddAcc            0      0.00%     12.22% # attempts to use FU when none available
system.switch_cpus0.iq.fu_full::SimdAlu             0      0.00%     12.22% # attempts to use FU when none available
system.switch_cpus0.iq.fu_full::SimdCmp             0      0.00%     12.22% # attempts to use FU when none available
system.switch_cpus0.iq.fu_full::SimdCvt             0      0.00%     12.22% # attempts to use FU when none available
system.switch_cpus0.iq.fu_full::SimdMisc            0      0.00%     12.22% # attempts to use FU when none available
system.switch_cpus0.iq.fu_full::SimdMult            0      0.00%     12.22% # attempts to use FU when none available
system.switch_cpus0.iq.fu_full::SimdMultAcc            0      0.00%     12.22% # attempts to use FU when none available
system.switch_cpus0.iq.fu_full::SimdShift            0      0.00%     12.22% # attempts to use FU when none available
system.switch_cpus0.iq.fu_full::SimdShiftAcc            0      0.00%     12.22% # attempts to use FU when none available
system.switch_cpus0.iq.fu_full::SimdSqrt            0      0.00%     12.22% # attempts to use FU when none available
system.switch_cpus0.iq.fu_full::SimdFloatAdd            0      0.00%     12.22% # attempts to use FU when none available
system.switch_cpus0.iq.fu_full::SimdFloatAlu            0      0.00%     12.22% # attempts to use FU when none available
system.switch_cpus0.iq.fu_full::SimdFloatCmp            0      0.00%     12.22% # attempts to use FU when none available
system.switch_cpus0.iq.fu_full::SimdFloatCvt            0      0.00%     12.22% # attempts to use FU when none available
system.switch_cpus0.iq.fu_full::SimdFloatDiv            0      0.00%     12.22% # attempts to use FU when none available
system.switch_cpus0.iq.fu_full::SimdFloatMisc            0      0.00%     12.22% # attempts to use FU when none available
system.switch_cpus0.iq.fu_full::SimdFloatMult            0      0.00%     12.22% # attempts to use FU when none available
system.switch_cpus0.iq.fu_full::SimdFloatMultAcc            0      0.00%     12.22% # attempts to use FU when none available
system.switch_cpus0.iq.fu_full::SimdFloatSqrt            0      0.00%     12.22% # attempts to use FU when none available
system.switch_cpus0.iq.fu_full::MemRead        126155     42.98%     55.20% # attempts to use FU when none available
system.switch_cpus0.iq.fu_full::MemWrite       131500     44.80%    100.00% # attempts to use FU when none available
system.switch_cpus0.iq.fu_full::IprAccess            0      0.00%    100.00% # attempts to use FU when none available
system.switch_cpus0.iq.fu_full::InstPrefetch            0      0.00%    100.00% # attempts to use FU when none available
system.switch_cpus0.iq.FU_type_0::No_OpClass            0      0.00%      0.00% # Type of FU issued
system.switch_cpus0.iq.FU_type_0::IntAlu    113330388     83.70%     83.70% # Type of FU issued
system.switch_cpus0.iq.FU_type_0::IntMult      2118775      1.56%     85.27% # Type of FU issued
system.switch_cpus0.iq.FU_type_0::IntDiv            0      0.00%     85.27% # Type of FU issued
system.switch_cpus0.iq.FU_type_0::FloatAdd            0      0.00%     85.27% # Type of FU issued
system.switch_cpus0.iq.FU_type_0::FloatCmp            0      0.00%     85.27% # Type of FU issued
system.switch_cpus0.iq.FU_type_0::FloatCvt            0      0.00%     85.27% # Type of FU issued
system.switch_cpus0.iq.FU_type_0::FloatMult            0      0.00%     85.27% # Type of FU issued
system.switch_cpus0.iq.FU_type_0::FloatDiv            0      0.00%     85.27% # Type of FU issued
system.switch_cpus0.iq.FU_type_0::FloatSqrt            0      0.00%     85.27% # Type of FU issued
system.switch_cpus0.iq.FU_type_0::SimdAdd            0      0.00%     85.27% # Type of FU issued
system.switch_cpus0.iq.FU_type_0::SimdAddAcc            0      0.00%     85.27% # Type of FU issued
system.switch_cpus0.iq.FU_type_0::SimdAlu            0      0.00%     85.27% # Type of FU issued
system.switch_cpus0.iq.FU_type_0::SimdCmp            0      0.00%     85.27% # Type of FU issued
system.switch_cpus0.iq.FU_type_0::SimdCvt            0      0.00%     85.27% # Type of FU issued
system.switch_cpus0.iq.FU_type_0::SimdMisc            0      0.00%     85.27% # Type of FU issued
system.switch_cpus0.iq.FU_type_0::SimdMult            0      0.00%     85.27% # Type of FU issued
system.switch_cpus0.iq.FU_type_0::SimdMultAcc            0      0.00%     85.27% # Type of FU issued
system.switch_cpus0.iq.FU_type_0::SimdShift            0      0.00%     85.27% # Type of FU issued
system.switch_cpus0.iq.FU_type_0::SimdShiftAcc            0      0.00%     85.27% # Type of FU issued
system.switch_cpus0.iq.FU_type_0::SimdSqrt            0      0.00%     85.27% # Type of FU issued
system.switch_cpus0.iq.FU_type_0::SimdFloatAdd            0      0.00%     85.27% # Type of FU issued
system.switch_cpus0.iq.FU_type_0::SimdFloatAlu            0      0.00%     85.27% # Type of FU issued
system.switch_cpus0.iq.FU_type_0::SimdFloatCmp            0      0.00%     85.27% # Type of FU issued
system.switch_cpus0.iq.FU_type_0::SimdFloatCvt            0      0.00%     85.27% # Type of FU issued
system.switch_cpus0.iq.FU_type_0::SimdFloatDiv            0      0.00%     85.27% # Type of FU issued
system.switch_cpus0.iq.FU_type_0::SimdFloatMisc        16584      0.01%     85.28% # Type of FU issued
system.switch_cpus0.iq.FU_type_0::SimdFloatMult            0      0.00%     85.28% # Type of FU issued
system.switch_cpus0.iq.FU_type_0::SimdFloatMultAcc            0      0.00%     85.28% # Type of FU issued
system.switch_cpus0.iq.FU_type_0::SimdFloatSqrt            0      0.00%     85.28% # Type of FU issued
system.switch_cpus0.iq.FU_type_0::MemRead     12516020      9.24%     94.53% # Type of FU issued
system.switch_cpus0.iq.FU_type_0::MemWrite      7411624      5.47%    100.00% # Type of FU issued
system.switch_cpus0.iq.FU_type_0::IprAccess            0      0.00%    100.00% # Type of FU issued
system.switch_cpus0.iq.FU_type_0::InstPrefetch            0      0.00%    100.00% # Type of FU issued
system.switch_cpus0.iq.FU_type_0::total     135393391                       # Type of FU issued
system.switch_cpus0.iq.rate                  0.535212                       # Inst issue rate
system.switch_cpus0.iq.fu_busy_cnt             293513                       # FU busy when requested
system.switch_cpus0.iq.fu_busy_rate          0.002168                       # FU busy rate (busy events/executed inst)
system.switch_cpus0.iq.int_inst_queue_reads    504214504                       # Number of integer instruction queue reads
system.switch_cpus0.iq.int_inst_queue_writes    161217300                       # Number of integer instruction queue writes
system.switch_cpus0.iq.int_inst_queue_wakeup_accesses    133157035                       # Number of integer instruction queue wakeup accesses
system.switch_cpus0.iq.fp_inst_queue_reads            0                       # Number of floating instruction queue reads
system.switch_cpus0.iq.fp_inst_queue_writes            0                       # Number of floating instruction queue writes
system.switch_cpus0.iq.fp_inst_queue_wakeup_accesses            0                       # Number of floating instruction queue wakeup accesses
system.switch_cpus0.iq.int_alu_accesses     135686904                       # Number of integer alu accesses
system.switch_cpus0.iq.fp_alu_accesses              0                       # Number of floating point alu accesses
system.switch_cpus0.iew.lsq.thread0.forwLoads       343703                       # Number of loads that had data forwarded from stores
system.switch_cpus0.iew.lsq.thread0.invAddrLoads            0                       # Number of loads ignored due to an invalid address
system.switch_cpus0.iew.lsq.thread0.squashedLoads      2407262                       # Number of loads squashed
system.switch_cpus0.iew.lsq.thread0.ignoredResponses          841                       # Number of memory responses ignored because the instruction is squashed
system.switch_cpus0.iew.lsq.thread0.memOrderViolation         1261                       # Number of memory ordering violations
system.switch_cpus0.iew.lsq.thread0.squashedStores       163838                       # Number of stores squashed
system.switch_cpus0.iew.lsq.thread0.invAddrSwpfs            0                       # Number of software prefetches ignored due to an invalid address
system.switch_cpus0.iew.lsq.thread0.blockedLoads            0                       # Number of blocked loads due to partial load-store forwarding
system.switch_cpus0.iew.lsq.thread0.rescheduledLoads         8288                       # Number of loads that were rescheduled
system.switch_cpus0.iew.lsq.thread0.cacheBlocked            0                       # Number of times an access to memory failed due to the cache being blocked
system.switch_cpus0.iew.iewIdleCycles               0                       # Number of cycles IEW is idle
system.switch_cpus0.iew.iewSquashCycles       3669660                       # Number of cycles IEW is squashing
system.switch_cpus0.iew.iewBlockCycles        2306132                       # Number of cycles IEW is blocking
system.switch_cpus0.iew.iewUnblockCycles       147570                       # Number of cycles IEW is unblocking
system.switch_cpus0.iew.iewDispatchedInsts    143305596                       # Number of instructions dispatched to IQ
system.switch_cpus0.iew.iewDispSquashedInsts        57525                       # Number of squashed instructions skipped by dispatch
system.switch_cpus0.iew.iewDispLoadInsts     13690944                       # Number of dispatched load instructions
system.switch_cpus0.iew.iewDispStoreInsts      7464509                       # Number of dispatched store instructions
system.switch_cpus0.iew.iewDispNonSpecInsts        20818                       # Number of dispatched non-speculative instructions
system.switch_cpus0.iew.iewIQFullEvents        104203                       # Number of times the IQ has become full, causing a stall
system.switch_cpus0.iew.iewLSQFullEvents            1                       # Number of times the LSQ has become full, causing a stall
system.switch_cpus0.iew.memOrderViolationEvents         1261                       # Number of memory order violations
system.switch_cpus0.iew.predictedTakenIncorrect      1173750                       # Number of branches that were predicted taken incorrectly
system.switch_cpus0.iew.predictedNotTakenIncorrect      1137616                       # Number of branches that were predicted not taken incorrectly
system.switch_cpus0.iew.branchMispredicts      2311366                       # Number of branch mispredicts detected at execute
system.switch_cpus0.iew.iewExecutedInsts    133405710                       # Number of executed instructions
system.switch_cpus0.iew.iewExecLoadInsts     11754493                       # Number of load instructions executed
system.switch_cpus0.iew.iewExecSquashedInsts      1987678                       # Number of squashed instructions skipped in execute
system.switch_cpus0.iew.exec_swp                    0                       # number of swp insts executed
system.switch_cpus0.iew.exec_nop                  121                       # number of nop insts executed
system.switch_cpus0.iew.exec_refs            19164318                       # number of memory reference insts executed
system.switch_cpus0.iew.exec_branches        18667810                       # Number of branches executed
system.switch_cpus0.iew.exec_stores           7409825                       # Number of stores executed
system.switch_cpus0.iew.exec_rate            0.527355                       # Inst execution rate
system.switch_cpus0.iew.wb_sent             133159133                       # cumulative count of insts sent to commit
system.switch_cpus0.iew.wb_count            133157035                       # cumulative count of insts written-back
system.switch_cpus0.iew.wb_producers         79146107                       # num instructions producing a value
system.switch_cpus0.iew.wb_consumers        207314750                       # num instructions consuming a value
system.switch_cpus0.iew.wb_penalized                0                       # number of instrctions required to write to 'other' IQ
system.switch_cpus0.iew.wb_rate              0.526372                       # insts written-back per cycle
system.switch_cpus0.iew.wb_fanout            0.381768                       # average fanout of values written-back
system.switch_cpus0.iew.wb_penalized_rate            0                       # fraction of instructions written-back that wrote to 'other' IQ
system.switch_cpus0.commit.commitCommittedInsts    100000004                       # The number of committed instructions
system.switch_cpus0.commit.commitCommittedOps    122687897                       # The number of committed instructions
system.switch_cpus0.commit.commitSquashedInsts     20619019                       # The number of squashed insts skipped by commit
system.switch_cpus0.commit.commitNonSpecStalls        33449                       # The number of times commit has been forced to stall to communicate backwards
system.switch_cpus0.commit.branchMispredicts      2035914                       # The number of times a branch was mispredicted
system.switch_cpus0.commit.committed_per_cycle::samples    229276997                       # Number of insts commited each cycle
system.switch_cpus0.commit.committed_per_cycle::mean     0.535108                       # Number of insts commited each cycle
system.switch_cpus0.commit.committed_per_cycle::stdev     1.354278                       # Number of insts commited each cycle
system.switch_cpus0.commit.committed_per_cycle::underflows            0      0.00%      0.00% # Number of insts commited each cycle
system.switch_cpus0.commit.committed_per_cycle::0    179162269     78.14%     78.14% # Number of insts commited each cycle
system.switch_cpus0.commit.committed_per_cycle::1     23239406     10.14%     88.28% # Number of insts commited each cycle
system.switch_cpus0.commit.committed_per_cycle::2      9736719      4.25%     92.52% # Number of insts commited each cycle
system.switch_cpus0.commit.committed_per_cycle::3      5853676      2.55%     95.08% # Number of insts commited each cycle
system.switch_cpus0.commit.committed_per_cycle::4      4052087      1.77%     96.85% # Number of insts commited each cycle
system.switch_cpus0.commit.committed_per_cycle::5      2615993      1.14%     97.99% # Number of insts commited each cycle
system.switch_cpus0.commit.committed_per_cycle::6      1358237      0.59%     98.58% # Number of insts commited each cycle
system.switch_cpus0.commit.committed_per_cycle::7      1092590      0.48%     99.06% # Number of insts commited each cycle
system.switch_cpus0.commit.committed_per_cycle::8      2166020      0.94%    100.00% # Number of insts commited each cycle
system.switch_cpus0.commit.committed_per_cycle::overflows            0      0.00%    100.00% # Number of insts commited each cycle
system.switch_cpus0.commit.committed_per_cycle::min_value            0                       # Number of insts commited each cycle
system.switch_cpus0.commit.committed_per_cycle::max_value            8                       # Number of insts commited each cycle
system.switch_cpus0.commit.committed_per_cycle::total    229276997                       # Number of insts commited each cycle
system.switch_cpus0.commit.committedInsts    100000004                       # Number of instructions committed
system.switch_cpus0.commit.committedOps     122687897                       # Number of ops (including micro ops) committed
system.switch_cpus0.commit.swp_count                0                       # Number of s/w prefetches committed
system.switch_cpus0.commit.refs              18584353                       # Number of memory references committed
system.switch_cpus0.commit.loads             11283682                       # Number of loads committed
system.switch_cpus0.commit.membars              16688                       # Number of memory barriers committed
system.switch_cpus0.commit.branches          17558823                       # Number of branches committed
system.switch_cpus0.commit.fp_insts                 0                       # Number of committed floating point instructions.
system.switch_cpus0.commit.int_insts        110607969                       # Number of committed integer instructions.
system.switch_cpus0.commit.function_calls      2496074                       # Number of function calls committed.
system.switch_cpus0.commit.bw_lim_events      2166020                       # number cycles where commit BW limit reached
system.switch_cpus0.commit.bw_limited               0                       # number of insts not committed due to BW limits
system.switch_cpus0.rob.rob_reads           370417217                       # The number of ROB reads
system.switch_cpus0.rob.rob_writes          290283576                       # The number of ROB writes
system.switch_cpus0.timesIdled                3022442                       # Number of times that the entire CPU went into an idle state and unscheduled itself
system.switch_cpus0.idleCycles               20024681                       # Total number of cycles that the CPU has spent unscheduled due to idling
system.switch_cpus0.committedInsts          100000004                       # Number of Instructions Simulated
system.switch_cpus0.committedOps            122687897                       # Number of Ops (including micro ops) Simulated
system.switch_cpus0.committedInsts_total    100000004                       # Number of Instructions Simulated
system.switch_cpus0.cpi                      2.529713                       # CPI: Cycles Per Instruction
system.switch_cpus0.cpi_total                2.529713                       # CPI: Total CPI of All Threads
system.switch_cpus0.ipc                      0.395302                       # IPC: Instructions Per Cycle
system.switch_cpus0.ipc_total                0.395302                       # IPC: Total IPC of All Threads
system.switch_cpus0.int_regfile_reads       601781421                       # number of integer regfile reads
system.switch_cpus0.int_regfile_writes      184810165                       # number of integer regfile writes
system.switch_cpus0.misc_regfile_reads      133987176                       # number of misc regfile reads
system.switch_cpus0.misc_regfile_writes         33418                       # number of misc regfile writes
system.switch_cpus1.dtb.inst_hits                   0                       # ITB inst hits
system.switch_cpus1.dtb.inst_misses                 0                       # ITB inst misses
system.switch_cpus1.dtb.read_hits                   0                       # DTB read hits
system.switch_cpus1.dtb.read_misses                 0                       # DTB read misses
system.switch_cpus1.dtb.write_hits                  0                       # DTB write hits
system.switch_cpus1.dtb.write_misses                0                       # DTB write misses
system.switch_cpus1.dtb.flush_tlb                   0                       # Number of times complete TLB was flushed
system.switch_cpus1.dtb.flush_tlb_mva               0                       # Number of times TLB was flushed by MVA
system.switch_cpus1.dtb.flush_tlb_mva_asid            0                       # Number of times TLB was flushed by MVA & ASID
system.switch_cpus1.dtb.flush_tlb_asid              0                       # Number of times TLB was flushed by ASID
system.switch_cpus1.dtb.flush_entries               0                       # Number of entries that have been flushed from TLB
system.switch_cpus1.dtb.align_faults                0                       # Number of TLB faults due to alignment restrictions
system.switch_cpus1.dtb.prefetch_faults             0                       # Number of TLB faults due to prefetch
system.switch_cpus1.dtb.domain_faults               0                       # Number of TLB faults due to domain restrictions
system.switch_cpus1.dtb.perms_faults                0                       # Number of TLB faults due to permissions restrictions
system.switch_cpus1.dtb.read_accesses               0                       # DTB read accesses
system.switch_cpus1.dtb.write_accesses              0                       # DTB write accesses
system.switch_cpus1.dtb.inst_accesses               0                       # ITB inst accesses
system.switch_cpus1.dtb.hits                        0                       # DTB hits
system.switch_cpus1.dtb.misses                      0                       # DTB misses
system.switch_cpus1.dtb.accesses                    0                       # DTB accesses
system.switch_cpus1.itb.inst_hits                   0                       # ITB inst hits
system.switch_cpus1.itb.inst_misses                 0                       # ITB inst misses
system.switch_cpus1.itb.read_hits                   0                       # DTB read hits
system.switch_cpus1.itb.read_misses                 0                       # DTB read misses
system.switch_cpus1.itb.write_hits                  0                       # DTB write hits
system.switch_cpus1.itb.write_misses                0                       # DTB write misses
system.switch_cpus1.itb.flush_tlb                   0                       # Number of times complete TLB was flushed
system.switch_cpus1.itb.flush_tlb_mva               0                       # Number of times TLB was flushed by MVA
system.switch_cpus1.itb.flush_tlb_mva_asid            0                       # Number of times TLB was flushed by MVA & ASID
system.switch_cpus1.itb.flush_tlb_asid              0                       # Number of times TLB was flushed by ASID
system.switch_cpus1.itb.flush_entries               0                       # Number of entries that have been flushed from TLB
system.switch_cpus1.itb.align_faults                0                       # Number of TLB faults due to alignment restrictions
system.switch_cpus1.itb.prefetch_faults             0                       # Number of TLB faults due to prefetch
system.switch_cpus1.itb.domain_faults               0                       # Number of TLB faults due to domain restrictions
system.switch_cpus1.itb.perms_faults                0                       # Number of TLB faults due to permissions restrictions
system.switch_cpus1.itb.read_accesses               0                       # DTB read accesses
system.switch_cpus1.itb.write_accesses              0                       # DTB write accesses
system.switch_cpus1.itb.inst_accesses               0                       # ITB inst accesses
system.switch_cpus1.itb.hits                        0                       # DTB hits
system.switch_cpus1.itb.misses                      0                       # DTB misses
system.switch_cpus1.itb.accesses                    0                       # DTB accesses
system.cpu1.workload.num_syscalls                  26                       # Number of system calls
system.switch_cpus1.numCycles               252971338                       # number of cpu cycles simulated
system.switch_cpus1.numWorkItemsStarted             0                       # number of work items this cpu started
system.switch_cpus1.numWorkItemsCompleted            0                       # number of work items this cpu completed
system.switch_cpus1.BPredUnit.lookups        19751016                       # Number of BP lookups
system.switch_cpus1.BPredUnit.condPredicted     17820644                       # Number of conditional branches predicted
system.switch_cpus1.BPredUnit.condIncorrect      1035714                       # Number of conditional branches incorrect
system.switch_cpus1.BPredUnit.BTBLookups      7475770                       # Number of BTB lookups
system.switch_cpus1.BPredUnit.BTBHits         7064503                       # Number of BTB hits
system.switch_cpus1.BPredUnit.BTBCorrect            0                       # Number of correct BTB predictions (this stat may not work properly.
system.switch_cpus1.BPredUnit.usedRAS         1093240                       # Number of times the RAS was used to get a target.
system.switch_cpus1.BPredUnit.RASInCorrect        46131                       # Number of incorrect RAS predictions.
system.switch_cpus1.fetch.icacheStallCycles    209407920                       # Number of cycles fetch is stalled on an Icache miss
system.switch_cpus1.fetch.Insts             124305229                       # Number of instructions fetch has processed
system.switch_cpus1.fetch.Branches           19751016                       # Number of branches that fetch encountered
system.switch_cpus1.fetch.predictedBranches      8157743                       # Number of branches that fetch has predicted taken
system.switch_cpus1.fetch.Cycles             24577307                       # Number of cycles fetch has run and was not squashing or blocked
system.switch_cpus1.fetch.SquashCycles        3245094                       # Number of cycles fetch has spent squashing
system.switch_cpus1.fetch.BlockedCycles       4636278                       # Number of cycles fetch has spent blocked
system.switch_cpus1.fetch.CacheLines         12019716                       # Number of cache lines fetched
system.switch_cpus1.fetch.IcacheSquashes      1041140                       # Number of outstanding Icache misses that were squashed
system.switch_cpus1.fetch.rateDist::samples    240805039                       # Number of instructions fetched each cycle (Total)
system.switch_cpus1.fetch.rateDist::mean     0.605595                       # Number of instructions fetched each cycle (Total)
system.switch_cpus1.fetch.rateDist::stdev     1.934003                       # Number of instructions fetched each cycle (Total)
system.switch_cpus1.fetch.rateDist::underflows            0      0.00%      0.00% # Number of instructions fetched each cycle (Total)
system.switch_cpus1.fetch.rateDist::0       216227732     89.79%     89.79% # Number of instructions fetched each cycle (Total)
system.switch_cpus1.fetch.rateDist::1          876626      0.36%     90.16% # Number of instructions fetched each cycle (Total)
system.switch_cpus1.fetch.rateDist::2         1793612      0.74%     90.90% # Number of instructions fetched each cycle (Total)
system.switch_cpus1.fetch.rateDist::3          748629      0.31%     91.21% # Number of instructions fetched each cycle (Total)
system.switch_cpus1.fetch.rateDist::4         4090169      1.70%     92.91% # Number of instructions fetched each cycle (Total)
system.switch_cpus1.fetch.rateDist::5         3631921      1.51%     94.42% # Number of instructions fetched each cycle (Total)
system.switch_cpus1.fetch.rateDist::6          707295      0.29%     94.71% # Number of instructions fetched each cycle (Total)
system.switch_cpus1.fetch.rateDist::7         1475874      0.61%     95.33% # Number of instructions fetched each cycle (Total)
system.switch_cpus1.fetch.rateDist::8        11253181      4.67%    100.00% # Number of instructions fetched each cycle (Total)
system.switch_cpus1.fetch.rateDist::overflows            0      0.00%    100.00% # Number of instructions fetched each cycle (Total)
system.switch_cpus1.fetch.rateDist::min_value            0                       # Number of instructions fetched each cycle (Total)
system.switch_cpus1.fetch.rateDist::max_value            8                       # Number of instructions fetched each cycle (Total)
system.switch_cpus1.fetch.rateDist::total    240805039                       # Number of instructions fetched each cycle (Total)
system.switch_cpus1.fetch.branchRate         0.078076                       # Number of branch fetches per cycle
system.switch_cpus1.fetch.rate               0.491381                       # Number of inst fetches per cycle
system.switch_cpus1.decode.IdleCycles       208282795                       # Number of cycles decode is idle
system.switch_cpus1.decode.BlockedCycles      5774072                       # Number of cycles decode is blocked
system.switch_cpus1.decode.RunCycles         24487448                       # Number of cycles decode is running
system.switch_cpus1.decode.UnblockCycles        77693                       # Number of cycles decode is unblocking
system.switch_cpus1.decode.SquashCycles       2183026                       # Number of cycles decode is squashing
system.switch_cpus1.decode.BranchResolved      1735203                       # Number of times decode resolved a branch
system.switch_cpus1.decode.BranchMispred          509                       # Number of times decode detected a branch misprediction
system.switch_cpus1.decode.DecodedInsts     145762842                       # Number of instructions handled by decode
system.switch_cpus1.decode.SquashedInsts         2782                       # Number of squashed instructions handled by decode
system.switch_cpus1.rename.SquashCycles       2183026                       # Number of cycles rename is squashing
system.switch_cpus1.rename.IdleCycles       208491014                       # Number of cycles rename is idle
system.switch_cpus1.rename.BlockCycles        4051766                       # Number of cycles rename is blocking
system.switch_cpus1.rename.serializeStallCycles      1065439                       # count of cycles rename stalled for serializing inst
system.switch_cpus1.rename.RunCycles         24368011                       # Number of cycles rename is running
system.switch_cpus1.rename.UnblockCycles       645776                       # Number of cycles rename is unblocking
system.switch_cpus1.rename.RenamedInsts     145688026                       # Number of instructions processed by rename
system.switch_cpus1.rename.ROBFullEvents           86                       # Number of times rename has blocked due to ROB full
system.switch_cpus1.rename.IQFullEvents        273891                       # Number of times rename has blocked due to IQ full
system.switch_cpus1.rename.LSQFullEvents       235429                       # Number of times rename has blocked due to LSQ full
system.switch_cpus1.rename.FullRegisterEvents         3253                       # Number of times there has been no free registers
system.switch_cpus1.rename.RenamedOperands    171032833                       # Number of destination operands rename has renamed
system.switch_cpus1.rename.RenameLookups    686251375                       # Number of register rename lookups that rename has made
system.switch_cpus1.rename.int_rename_lookups    686251375                       # Number of integer rename lookups
system.switch_cpus1.rename.CommittedMaps    151866536                       # Number of HB maps that are committed
system.switch_cpus1.rename.UndoneMaps        19166291                       # Number of HB maps that are undone due to squashing
system.switch_cpus1.rename.serializingInsts        16916                       # count of serializing insts renamed
system.switch_cpus1.rename.tempSerializingInsts         8536                       # count of temporary serializing insts renamed
system.switch_cpus1.rename.skidInsts          1636648                       # count of insts added to the skid buffer
system.switch_cpus1.memDep0.insertedLoads     34385510                       # Number of loads inserted to the mem dependence unit.
system.switch_cpus1.memDep0.insertedStores     17400383                       # Number of stores inserted to the mem dependence unit.
system.switch_cpus1.memDep0.conflictingLoads       158421                       # Number of conflicting loads.
system.switch_cpus1.memDep0.conflictingStores       845168                       # Number of conflicting stores.
system.switch_cpus1.iq.iqInstsAdded         145407332                       # Number of instructions added to the IQ (excludes non-spec)
system.switch_cpus1.iq.iqNonSpecInstsAdded        16968                       # Number of non-speculative instructions added to the IQ
system.switch_cpus1.iq.iqInstsIssued        139884252                       # Number of instructions issued
system.switch_cpus1.iq.iqSquashedInstsIssued        71404                       # Number of squashed instructions issued
system.switch_cpus1.iq.iqSquashedInstsExamined     11093823                       # Number of squashed instructions iterated over during squash; mainly for profiling
system.switch_cpus1.iq.iqSquashedOperandsExamined     26531260                       # Number of squashed operands that are examined and possibly removed from graph
system.switch_cpus1.iq.iqSquashedNonSpecRemoved           82                       # Number of squashed non-spec instructions that were removed
system.switch_cpus1.iq.issued_per_cycle::samples    240805039                       # Number of insts issued each cycle
system.switch_cpus1.iq.issued_per_cycle::mean     0.580903                       # Number of insts issued each cycle
system.switch_cpus1.iq.issued_per_cycle::stdev     1.378589                       # Number of insts issued each cycle
system.switch_cpus1.iq.issued_per_cycle::underflows            0      0.00%      0.00% # Number of insts issued each cycle
system.switch_cpus1.iq.issued_per_cycle::0    191148590     79.38%     79.38% # Number of insts issued each cycle
system.switch_cpus1.iq.issued_per_cycle::1     14830315      6.16%     85.54% # Number of insts issued each cycle
system.switch_cpus1.iq.issued_per_cycle::2     12211546      5.07%     90.61% # Number of insts issued each cycle
system.switch_cpus1.iq.issued_per_cycle::3      5280758      2.19%     92.80% # Number of insts issued each cycle
system.switch_cpus1.iq.issued_per_cycle::4      6689112      2.78%     95.58% # Number of insts issued each cycle
system.switch_cpus1.iq.issued_per_cycle::5      6489357      2.69%     98.27% # Number of insts issued each cycle
system.switch_cpus1.iq.issued_per_cycle::6      3683970      1.53%     99.80% # Number of insts issued each cycle
system.switch_cpus1.iq.issued_per_cycle::7       289610      0.12%     99.92% # Number of insts issued each cycle
system.switch_cpus1.iq.issued_per_cycle::8       181781      0.08%    100.00% # Number of insts issued each cycle
system.switch_cpus1.iq.issued_per_cycle::overflows            0      0.00%    100.00% # Number of insts issued each cycle
system.switch_cpus1.iq.issued_per_cycle::min_value            0                       # Number of insts issued each cycle
system.switch_cpus1.iq.issued_per_cycle::max_value            8                       # Number of insts issued each cycle
system.switch_cpus1.iq.issued_per_cycle::total    240805039                       # Number of insts issued each cycle
system.switch_cpus1.iq.fu_full::No_OpClass            0      0.00%      0.00% # attempts to use FU when none available
system.switch_cpus1.iq.fu_full::IntAlu         354404     11.08%     11.08% # attempts to use FU when none available
system.switch_cpus1.iq.fu_full::IntMult             0      0.00%     11.08% # attempts to use FU when none available
system.switch_cpus1.iq.fu_full::IntDiv              0      0.00%     11.08% # attempts to use FU when none available
system.switch_cpus1.iq.fu_full::FloatAdd            0      0.00%     11.08% # attempts to use FU when none available
system.switch_cpus1.iq.fu_full::FloatCmp            0      0.00%     11.08% # attempts to use FU when none available
system.switch_cpus1.iq.fu_full::FloatCvt            0      0.00%     11.08% # attempts to use FU when none available
system.switch_cpus1.iq.fu_full::FloatMult            0      0.00%     11.08% # attempts to use FU when none available
system.switch_cpus1.iq.fu_full::FloatDiv            0      0.00%     11.08% # attempts to use FU when none available
system.switch_cpus1.iq.fu_full::FloatSqrt            0      0.00%     11.08% # attempts to use FU when none available
system.switch_cpus1.iq.fu_full::SimdAdd             0      0.00%     11.08% # attempts to use FU when none available
system.switch_cpus1.iq.fu_full::SimdAddAcc            0      0.00%     11.08% # attempts to use FU when none available
system.switch_cpus1.iq.fu_full::SimdAlu             0      0.00%     11.08% # attempts to use FU when none available
system.switch_cpus1.iq.fu_full::SimdCmp             0      0.00%     11.08% # attempts to use FU when none available
system.switch_cpus1.iq.fu_full::SimdCvt             0      0.00%     11.08% # attempts to use FU when none available
system.switch_cpus1.iq.fu_full::SimdMisc            0      0.00%     11.08% # attempts to use FU when none available
system.switch_cpus1.iq.fu_full::SimdMult            0      0.00%     11.08% # attempts to use FU when none available
system.switch_cpus1.iq.fu_full::SimdMultAcc            0      0.00%     11.08% # attempts to use FU when none available
system.switch_cpus1.iq.fu_full::SimdShift            0      0.00%     11.08% # attempts to use FU when none available
system.switch_cpus1.iq.fu_full::SimdShiftAcc            0      0.00%     11.08% # attempts to use FU when none available
system.switch_cpus1.iq.fu_full::SimdSqrt            0      0.00%     11.08% # attempts to use FU when none available
system.switch_cpus1.iq.fu_full::SimdFloatAdd            0      0.00%     11.08% # attempts to use FU when none available
system.switch_cpus1.iq.fu_full::SimdFloatAlu            0      0.00%     11.08% # attempts to use FU when none available
system.switch_cpus1.iq.fu_full::SimdFloatCmp            0      0.00%     11.08% # attempts to use FU when none available
system.switch_cpus1.iq.fu_full::SimdFloatCvt            0      0.00%     11.08% # attempts to use FU when none available
system.switch_cpus1.iq.fu_full::SimdFloatDiv            0      0.00%     11.08% # attempts to use FU when none available
system.switch_cpus1.iq.fu_full::SimdFloatMisc            0      0.00%     11.08% # attempts to use FU when none available
system.switch_cpus1.iq.fu_full::SimdFloatMult            0      0.00%     11.08% # attempts to use FU when none available
system.switch_cpus1.iq.fu_full::SimdFloatMultAcc            0      0.00%     11.08% # attempts to use FU when none available
system.switch_cpus1.iq.fu_full::SimdFloatSqrt            0      0.00%     11.08% # attempts to use FU when none available
system.switch_cpus1.iq.fu_full::MemRead       2763829     86.41%     97.50% # attempts to use FU when none available
system.switch_cpus1.iq.fu_full::MemWrite        80092      2.50%    100.00% # attempts to use FU when none available
system.switch_cpus1.iq.fu_full::IprAccess            0      0.00%    100.00% # attempts to use FU when none available
system.switch_cpus1.iq.fu_full::InstPrefetch            0      0.00%    100.00% # attempts to use FU when none available
system.switch_cpus1.iq.FU_type_0::No_OpClass            0      0.00%      0.00% # Type of FU issued
system.switch_cpus1.iq.FU_type_0::IntAlu     87743521     62.73%     62.73% # Type of FU issued
system.switch_cpus1.iq.FU_type_0::IntMult      1222565      0.87%     63.60% # Type of FU issued
system.switch_cpus1.iq.FU_type_0::IntDiv            0      0.00%     63.60% # Type of FU issued
system.switch_cpus1.iq.FU_type_0::FloatAdd            0      0.00%     63.60% # Type of FU issued
system.switch_cpus1.iq.FU_type_0::FloatCmp            0      0.00%     63.60% # Type of FU issued
system.switch_cpus1.iq.FU_type_0::FloatCvt            0      0.00%     63.60% # Type of FU issued
system.switch_cpus1.iq.FU_type_0::FloatMult            0      0.00%     63.60% # Type of FU issued
system.switch_cpus1.iq.FU_type_0::FloatDiv            0      0.00%     63.60% # Type of FU issued
system.switch_cpus1.iq.FU_type_0::FloatSqrt            0      0.00%     63.60% # Type of FU issued
system.switch_cpus1.iq.FU_type_0::SimdAdd            0      0.00%     63.60% # Type of FU issued
system.switch_cpus1.iq.FU_type_0::SimdAddAcc            0      0.00%     63.60% # Type of FU issued
system.switch_cpus1.iq.FU_type_0::SimdAlu            0      0.00%     63.60% # Type of FU issued
system.switch_cpus1.iq.FU_type_0::SimdCmp            0      0.00%     63.60% # Type of FU issued
system.switch_cpus1.iq.FU_type_0::SimdCvt            0      0.00%     63.60% # Type of FU issued
[...]
system.cpu7.icache.ReadReq_avg_miss_latency::total 155327.568627                       # average ReadReq miss latency
system.cpu7.icache.demand_avg_miss_latency::switch_cpus7.inst 155327.568627                       # average overall miss latency
system.cpu7.icache.demand_avg_miss_latency::total 155327.568627                       # average overall miss latency
system.cpu7.icache.overall_avg_miss_latency::switch_cpus7.inst 155327.568627                       # average overall miss latency
system.cpu7.icache.overall_avg_miss_latency::total 155327.568627                       # average overall miss latency
system.cpu7.icache.blocked_cycles::no_mshrs            0                       # number of cycles access was blocked
system.cpu7.icache.blocked_cycles::no_targets            0                       # number of cycles access was blocked
system.cpu7.icache.blocked::no_mshrs                0                       # number of cycles access was blocked
system.cpu7.icache.blocked::no_targets              0                       # number of cycles access was blocked
system.cpu7.icache.avg_blocked_cycles::no_mshrs          nan                       # average number of cycles each access was blocked
system.cpu7.icache.avg_blocked_cycles::no_targets          nan                       # average number of cycles each access was blocked
system.cpu7.icache.fast_writes                      0                       # number of fast writes performed
system.cpu7.icache.cache_copies                     0                       # number of cache copies performed
system.cpu7.icache.ReadReq_mshr_hits::switch_cpus7.inst            9                       # number of ReadReq MSHR hits
system.cpu7.icache.ReadReq_mshr_hits::total            9                       # number of ReadReq MSHR hits
system.cpu7.icache.demand_mshr_hits::switch_cpus7.inst            9                       # number of demand (read+write) MSHR hits
system.cpu7.icache.demand_mshr_hits::total            9                       # number of demand (read+write) MSHR hits
system.cpu7.icache.overall_mshr_hits::switch_cpus7.inst            9                       # number of overall MSHR hits
system.cpu7.icache.overall_mshr_hits::total            9                       # number of overall MSHR hits
system.cpu7.icache.ReadReq_mshr_misses::switch_cpus7.inst           42                       # number of ReadReq MSHR misses
system.cpu7.icache.ReadReq_mshr_misses::total           42                       # number of ReadReq MSHR misses
system.cpu7.icache.demand_mshr_misses::switch_cpus7.inst           42                       # number of demand (read+write) MSHR misses
system.cpu7.icache.demand_mshr_misses::total           42                       # number of demand (read+write) MSHR misses
system.cpu7.icache.overall_mshr_misses::switch_cpus7.inst           42                       # number of overall MSHR misses
system.cpu7.icache.overall_mshr_misses::total           42                       # number of overall MSHR misses
system.cpu7.icache.ReadReq_mshr_miss_latency::switch_cpus7.inst      6590810                       # number of ReadReq MSHR miss cycles
system.cpu7.icache.ReadReq_mshr_miss_latency::total      6590810                       # number of ReadReq MSHR miss cycles
system.cpu7.icache.demand_mshr_miss_latency::switch_cpus7.inst      6590810                       # number of demand (read+write) MSHR miss cycles
system.cpu7.icache.demand_mshr_miss_latency::total      6590810                       # number of demand (read+write) MSHR miss cycles
system.cpu7.icache.overall_mshr_miss_latency::switch_cpus7.inst      6590810                       # number of overall MSHR miss cycles
system.cpu7.icache.overall_mshr_miss_latency::total      6590810                       # number of overall MSHR miss cycles
system.cpu7.icache.ReadReq_mshr_miss_rate::switch_cpus7.inst     0.000003                       # mshr miss rate for ReadReq accesses
system.cpu7.icache.ReadReq_mshr_miss_rate::total     0.000003                       # mshr miss rate for ReadReq accesses
system.cpu7.icache.demand_mshr_miss_rate::switch_cpus7.inst     0.000003                       # mshr miss rate for demand accesses
system.cpu7.icache.demand_mshr_miss_rate::total     0.000003                       # mshr miss rate for demand accesses
system.cpu7.icache.overall_mshr_miss_rate::switch_cpus7.inst     0.000003                       # mshr miss rate for overall accesses
system.cpu7.icache.overall_mshr_miss_rate::total     0.000003                       # mshr miss rate for overall accesses
system.cpu7.icache.ReadReq_avg_mshr_miss_latency::switch_cpus7.inst 156924.047619                       # average ReadReq mshr miss latency
system.cpu7.icache.ReadReq_avg_mshr_miss_latency::total 156924.047619                       # average ReadReq mshr miss latency
system.cpu7.icache.demand_avg_mshr_miss_latency::switch_cpus7.inst 156924.047619                       # average overall mshr miss latency
system.cpu7.icache.demand_avg_mshr_miss_latency::total 156924.047619                       # average overall mshr miss latency
system.cpu7.icache.overall_avg_mshr_miss_latency::switch_cpus7.inst 156924.047619                       # average overall mshr miss latency
system.cpu7.icache.overall_avg_mshr_miss_latency::total 156924.047619                       # average overall mshr miss latency
system.cpu7.icache.no_allocate_misses               0                       # Number of misses that were no-allocate
system.cpu7.dcache.replacements                 41437                       # number of replacements
system.cpu7.dcache.tagsinuse                      256                       # Cycle average of tags in use
system.cpu7.dcache.total_refs               166571629                       # Total number of references to valid blocks.
system.cpu7.dcache.sampled_refs                 41693                       # Sample count of references to valid blocks.
system.cpu7.dcache.avg_refs               3995.194133                       # Average number of references to valid blocks.
system.cpu7.dcache.warmup_cycle                     0                       # Cycle when the warmup percentage was hit.
system.cpu7.dcache.occ_blocks::switch_cpus7.data   233.359916                       # Average occupied blocks per requestor
system.cpu7.dcache.occ_blocks::cpu7.data    22.640084                       # Average occupied blocks per requestor
system.cpu7.dcache.occ_percent::switch_cpus7.data     0.911562                       # Average percentage of cache occupancy
system.cpu7.dcache.occ_percent::cpu7.data     0.088438                       # Average percentage of cache occupancy
system.cpu7.dcache.occ_percent::total               1                       # Average percentage of cache occupancy
system.cpu7.dcache.ReadReq_hits::switch_cpus7.data      8492163                       # number of ReadReq hits
system.cpu7.dcache.ReadReq_hits::total        8492163                       # number of ReadReq hits
system.cpu7.dcache.WriteReq_hits::switch_cpus7.data      7148265                       # number of WriteReq hits
system.cpu7.dcache.WriteReq_hits::total       7148265                       # number of WriteReq hits
system.cpu7.dcache.LoadLockedReq_hits::switch_cpus7.data        18362                       # number of LoadLockedReq hits
system.cpu7.dcache.LoadLockedReq_hits::total        18362                       # number of LoadLockedReq hits
system.cpu7.dcache.StoreCondReq_hits::switch_cpus7.data        17213                       # number of StoreCondReq hits
system.cpu7.dcache.StoreCondReq_hits::total        17213                       # number of StoreCondReq hits
system.cpu7.dcache.demand_hits::switch_cpus7.data     15640428                       # number of demand (read+write) hits
system.cpu7.dcache.demand_hits::total        15640428                       # number of demand (read+write) hits
system.cpu7.dcache.overall_hits::switch_cpus7.data     15640428                       # number of overall hits
system.cpu7.dcache.overall_hits::total       15640428                       # number of overall hits
system.cpu7.dcache.ReadReq_misses::switch_cpus7.data       132682                       # number of ReadReq misses
system.cpu7.dcache.ReadReq_misses::total       132682                       # number of ReadReq misses
system.cpu7.dcache.WriteReq_misses::switch_cpus7.data          886                       # number of WriteReq misses
system.cpu7.dcache.WriteReq_misses::total          886                       # number of WriteReq misses
system.cpu7.dcache.demand_misses::switch_cpus7.data       133568                       # number of demand (read+write) misses
system.cpu7.dcache.demand_misses::total        133568                       # number of demand (read+write) misses
system.cpu7.dcache.overall_misses::switch_cpus7.data       133568                       # number of overall misses
system.cpu7.dcache.overall_misses::total       133568                       # number of overall misses
system.cpu7.dcache.ReadReq_miss_latency::switch_cpus7.data  15154749397                       # number of ReadReq miss cycles
system.cpu7.dcache.ReadReq_miss_latency::total  15154749397                       # number of ReadReq miss cycles
system.cpu7.dcache.WriteReq_miss_latency::switch_cpus7.data     75372242                       # number of WriteReq miss cycles
system.cpu7.dcache.WriteReq_miss_latency::total     75372242                       # number of WriteReq miss cycles
system.cpu7.dcache.demand_miss_latency::switch_cpus7.data  15230121639                       # number of demand (read+write) miss cycles
system.cpu7.dcache.demand_miss_latency::total  15230121639                       # number of demand (read+write) miss cycles
system.cpu7.dcache.overall_miss_latency::switch_cpus7.data  15230121639                       # number of overall miss cycles
system.cpu7.dcache.overall_miss_latency::total  15230121639                       # number of overall miss cycles
system.cpu7.dcache.ReadReq_accesses::switch_cpus7.data      8624845                       # number of ReadReq accesses(hits+misses)
system.cpu7.dcache.ReadReq_accesses::total      8624845                       # number of ReadReq accesses(hits+misses)
system.cpu7.dcache.WriteReq_accesses::switch_cpus7.data      7149151                       # number of WriteReq accesses(hits+misses)
system.cpu7.dcache.WriteReq_accesses::total      7149151                       # number of WriteReq accesses(hits+misses)
system.cpu7.dcache.LoadLockedReq_accesses::switch_cpus7.data        18362                       # number of LoadLockedReq accesses(hits+misses)
system.cpu7.dcache.LoadLockedReq_accesses::total        18362                       # number of LoadLockedReq accesses(hits+misses)
system.cpu7.dcache.StoreCondReq_accesses::switch_cpus7.data        17213                       # number of StoreCondReq accesses(hits+misses)
system.cpu7.dcache.StoreCondReq_accesses::total        17213                       # number of StoreCondReq accesses(hits+misses)
system.cpu7.dcache.demand_accesses::switch_cpus7.data     15773996                       # number of demand (read+write) accesses
system.cpu7.dcache.demand_accesses::total     15773996                       # number of demand (read+write) accesses
system.cpu7.dcache.overall_accesses::switch_cpus7.data     15773996                       # number of overall (read+write) accesses
system.cpu7.dcache.overall_accesses::total     15773996                       # number of overall (read+write) accesses
system.cpu7.dcache.ReadReq_miss_rate::switch_cpus7.data     0.015384                       # miss rate for ReadReq accesses
system.cpu7.dcache.ReadReq_miss_rate::total     0.015384                       # miss rate for ReadReq accesses
system.cpu7.dcache.WriteReq_miss_rate::switch_cpus7.data     0.000124                       # miss rate for WriteReq accesses
system.cpu7.dcache.WriteReq_miss_rate::total     0.000124                       # miss rate for WriteReq accesses
system.cpu7.dcache.demand_miss_rate::switch_cpus7.data     0.008468                       # miss rate for demand accesses
system.cpu7.dcache.demand_miss_rate::total     0.008468                       # miss rate for demand accesses
system.cpu7.dcache.overall_miss_rate::switch_cpus7.data     0.008468                       # miss rate for overall accesses
system.cpu7.dcache.overall_miss_rate::total     0.008468                       # miss rate for overall accesses
system.cpu7.dcache.ReadReq_avg_miss_latency::switch_cpus7.data 114218.578232                       # average ReadReq miss latency
system.cpu7.dcache.ReadReq_avg_miss_latency::total 114218.578232                       # average ReadReq miss latency
system.cpu7.dcache.WriteReq_avg_miss_latency::switch_cpus7.data 85070.250564                       # average WriteReq miss latency
system.cpu7.dcache.WriteReq_avg_miss_latency::total 85070.250564                       # average WriteReq miss latency
system.cpu7.dcache.demand_avg_miss_latency::switch_cpus7.data 114025.227891                       # average overall miss latency
system.cpu7.dcache.demand_avg_miss_latency::total 114025.227891                       # average overall miss latency
system.cpu7.dcache.overall_avg_miss_latency::switch_cpus7.data 114025.227891                       # average overall miss latency
system.cpu7.dcache.overall_avg_miss_latency::total 114025.227891                       # average overall miss latency
system.cpu7.dcache.blocked_cycles::no_mshrs            0                       # number of cycles access was blocked
system.cpu7.dcache.blocked_cycles::no_targets            0                       # number of cycles access was blocked
system.cpu7.dcache.blocked::no_mshrs                0                       # number of cycles access was blocked
system.cpu7.dcache.blocked::no_targets              0                       # number of cycles access was blocked
system.cpu7.dcache.avg_blocked_cycles::no_mshrs          nan                       # average number of cycles each access was blocked
system.cpu7.dcache.avg_blocked_cycles::no_targets          nan                       # average number of cycles each access was blocked
system.cpu7.dcache.fast_writes                      0                       # number of fast writes performed
system.cpu7.dcache.cache_copies                     0                       # number of cache copies performed
system.cpu7.dcache.writebacks::writebacks         8770                       # number of writebacks
system.cpu7.dcache.writebacks::total             8770                       # number of writebacks
system.cpu7.dcache.ReadReq_mshr_hits::switch_cpus7.data        91397                       # number of ReadReq MSHR hits
system.cpu7.dcache.ReadReq_mshr_hits::total        91397                       # number of ReadReq MSHR hits
system.cpu7.dcache.WriteReq_mshr_hits::switch_cpus7.data          734                       # number of WriteReq MSHR hits
system.cpu7.dcache.WriteReq_mshr_hits::total          734                       # number of WriteReq MSHR hits
system.cpu7.dcache.demand_mshr_hits::switch_cpus7.data        92131                       # number of demand (read+write) MSHR hits
system.cpu7.dcache.demand_mshr_hits::total        92131                       # number of demand (read+write) MSHR hits
system.cpu7.dcache.overall_mshr_hits::switch_cpus7.data        92131                       # number of overall MSHR hits
system.cpu7.dcache.overall_mshr_hits::total        92131                       # number of overall MSHR hits
system.cpu7.dcache.ReadReq_mshr_misses::switch_cpus7.data        41285                       # number of ReadReq MSHR misses
system.cpu7.dcache.ReadReq_mshr_misses::total        41285                       # number of ReadReq MSHR misses
system.cpu7.dcache.WriteReq_mshr_misses::switch_cpus7.data          152                       # number of WriteReq MSHR misses
system.cpu7.dcache.WriteReq_mshr_misses::total          152                       # number of WriteReq MSHR misses
system.cpu7.dcache.demand_mshr_misses::switch_cpus7.data        41437                       # number of demand (read+write) MSHR misses
system.cpu7.dcache.demand_mshr_misses::total        41437                       # number of demand (read+write) MSHR misses
system.cpu7.dcache.overall_mshr_misses::switch_cpus7.data        41437                       # number of overall MSHR misses
system.cpu7.dcache.overall_mshr_misses::total        41437                       # number of overall MSHR misses
system.cpu7.dcache.ReadReq_mshr_miss_latency::switch_cpus7.data   3827453828                       # number of ReadReq MSHR miss cycles
system.cpu7.dcache.ReadReq_mshr_miss_latency::total   3827453828                       # number of ReadReq MSHR miss cycles
system.cpu7.dcache.WriteReq_mshr_miss_latency::switch_cpus7.data      9960095                       # number of WriteReq MSHR miss cycles
system.cpu7.dcache.WriteReq_mshr_miss_latency::total      9960095                       # number of WriteReq MSHR miss cycles
system.cpu7.dcache.demand_mshr_miss_latency::switch_cpus7.data   3837413923                       # number of demand (read+write) MSHR miss cycles
system.cpu7.dcache.demand_mshr_miss_latency::total   3837413923                       # number of demand (read+write) MSHR miss cycles
system.cpu7.dcache.overall_mshr_miss_latency::switch_cpus7.data   3837413923                       # number of overall MSHR miss cycles
system.cpu7.dcache.overall_mshr_miss_latency::total   3837413923                       # number of overall MSHR miss cycles
system.cpu7.dcache.ReadReq_mshr_miss_rate::switch_cpus7.data     0.004787                       # mshr miss rate for ReadReq accesses
system.cpu7.dcache.ReadReq_mshr_miss_rate::total     0.004787                       # mshr miss rate for ReadReq accesses
system.cpu7.dcache.WriteReq_mshr_miss_rate::switch_cpus7.data     0.000021                       # mshr miss rate for WriteReq accesses
system.cpu7.dcache.WriteReq_mshr_miss_rate::total     0.000021                       # mshr miss rate for WriteReq accesses
system.cpu7.dcache.demand_mshr_miss_rate::switch_cpus7.data     0.002627                       # mshr miss rate for demand accesses
system.cpu7.dcache.demand_mshr_miss_rate::total     0.002627                       # mshr miss rate for demand accesses
system.cpu7.dcache.overall_mshr_miss_rate::switch_cpus7.data     0.002627                       # mshr miss rate for overall accesses
system.cpu7.dcache.overall_mshr_miss_rate::total     0.002627                       # mshr miss rate for overall accesses
system.cpu7.dcache.ReadReq_avg_mshr_miss_latency::switch_cpus7.data 92708.098050                       # average ReadReq mshr miss latency
system.cpu7.dcache.ReadReq_avg_mshr_miss_latency::total 92708.098050                       # average ReadReq mshr miss latency
system.cpu7.dcache.WriteReq_avg_mshr_miss_latency::switch_cpus7.data 65526.940789                       # average WriteReq mshr miss latency
system.cpu7.dcache.WriteReq_avg_mshr_miss_latency::total 65526.940789                       # average WriteReq mshr miss latency
system.cpu7.dcache.demand_avg_mshr_miss_latency::switch_cpus7.data 92608.391607                       # average overall mshr miss latency
system.cpu7.dcache.demand_avg_mshr_miss_latency::total 92608.391607                       # average overall mshr miss latency
system.cpu7.dcache.overall_avg_mshr_miss_latency::switch_cpus7.data 92608.391607                       # average overall mshr miss latency
system.cpu7.dcache.overall_avg_mshr_miss_latency::total 92608.391607                       # average overall mshr miss latency
system.cpu7.dcache.no_allocate_misses               0                       # Number of misses that were no-allocate

---------- End Simulation Statistics   ----------
