
---------- Begin Simulation Statistics ----------
sim_seconds                                  0.102491                       # Number of seconds simulated
sim_ticks                                102490700769                       # Number of ticks simulated
final_tick                               630567410271                       # Number of ticks from beginning of simulation (restored from checkpoints and never reset)
sim_freq                                 1000000000000                       # Frequency of simulated ticks
host_inst_rate                                 110210                       # Simulator instruction rate (inst/s)
host_op_rate                                   139007                       # Simulator op (including micro ops) rate (op/s)
host_tick_rate                                5126327                       # Simulator tick rate (ticks/s)
host_mem_usage                               16885572                       # Number of bytes of host memory used
host_seconds                                 19993.01                       # Real time elapsed on the host
sim_insts                                  2203436272                       # Number of instructions simulated
sim_ops                                    2779172609                       # Number of ops (including micro ops) simulated
system.physmem.bytes_read::switch_cpus0.inst         1792                       # Number of bytes read from this memory
system.physmem.bytes_read::switch_cpus0.data      4936320                       # Number of bytes read from this memory
system.physmem.bytes_read::switch_cpus1.inst         1920                       # Number of bytes read from this memory
system.physmem.bytes_read::switch_cpus1.data      4179840                       # Number of bytes read from this memory
system.physmem.bytes_read::total              9119872                       # Number of bytes read from this memory
system.physmem.bytes_inst_read::switch_cpus0.inst         1792                       # Number of instructions bytes read from this memory
system.physmem.bytes_inst_read::switch_cpus1.inst         1920                       # Number of instructions bytes read from this memory
system.physmem.bytes_inst_read::total            3712                       # Number of instructions bytes read from this memory
system.physmem.bytes_written::writebacks      1894400                       # Number of bytes written to this memory
system.physmem.bytes_written::total           1894400                       # Number of bytes written to this memory
system.physmem.num_reads::switch_cpus0.inst           14                       # Number of read requests responded to by this memory
system.physmem.num_reads::switch_cpus0.data        38565                       # Number of read requests responded to by this memory
system.physmem.num_reads::switch_cpus1.inst           15                       # Number of read requests responded to by this memory
system.physmem.num_reads::switch_cpus1.data        32655                       # Number of read requests responded to by this memory
system.physmem.num_reads::total                 71249                       # Number of read requests responded to by this memory
system.physmem.num_writes::writebacks           14800                       # Number of write requests responded to by this memory
system.physmem.num_writes::functional               0                       # Number of write requests responded to by this memory
system.physmem.num_writes::interrupt                0                       # Number of write requests responded to by this memory
system.physmem.num_writes::switch_cpus0.dtb.walker            0                       # Number of write requests responded to by this memory
system.physmem.num_writes::switch_cpus0.itb.walker            0                       # Number of write requests responded to by this memory
system.physmem.num_writes::switch_cpus0.inst            0                       # Number of write requests responded to by this memory
system.physmem.num_writes::switch_cpus0.data            0                       # Number of write requests responded to by this memory
system.physmem.num_writes::switch_cpus1.dtb.walker            0                       # Number of write requests responded to by this memory
system.physmem.num_writes::switch_cpus1.itb.walker            0                       # Number of write requests responded to by this memory
system.physmem.num_writes::switch_cpus1.inst            0                       # Number of write requests responded to by this memory
system.physmem.num_writes::switch_cpus1.data            0                       # Number of write requests responded to by this memory
system.physmem.num_writes::cpu0.dtb.walker            0                       # Number of write requests responded to by this memory
system.physmem.num_writes::cpu0.itb.walker            0                       # Number of write requests responded to by this memory
system.physmem.num_writes::cpu0.inst                0                       # Number of write requests responded to by this memory
system.physmem.num_writes::cpu0.data                0                       # Number of write requests responded to by this memory
system.physmem.num_writes::cpu1.dtb.walker            0                       # Number of write requests responded to by this memory
system.physmem.num_writes::cpu1.itb.walker            0                       # Number of write requests responded to by this memory
system.physmem.num_writes::cpu1.inst                0                       # Number of write requests responded to by this memory
system.physmem.num_writes::cpu1.data                0                       # Number of write requests responded to by this memory
system.physmem.num_writes::total                14800                       # Number of write requests responded to by this memory
system.physmem.bw_read::switch_cpus0.inst        17485                       # Total read bandwidth from this memory (bytes/s)
system.physmem.bw_read::switch_cpus0.data     48163589                       # Total read bandwidth from this memory (bytes/s)
system.physmem.bw_read::switch_cpus1.inst        18733                       # Total read bandwidth from this memory (bytes/s)
system.physmem.bw_read::switch_cpus1.data     40782627                       # Total read bandwidth from this memory (bytes/s)
system.physmem.bw_read::total                88982434                       # Total read bandwidth from this memory (bytes/s)
system.physmem.bw_inst_read::switch_cpus0.inst        17485                       # Instruction read bandwidth from this memory (bytes/s)
system.physmem.bw_inst_read::switch_cpus1.inst        18733                       # Instruction read bandwidth from this memory (bytes/s)
system.physmem.bw_inst_read::total              36218                       # Instruction read bandwidth from this memory (bytes/s)
system.physmem.bw_write::writebacks          18483628                       # Write bandwidth from this memory (bytes/s)
system.physmem.bw_write::total               18483628                       # Write bandwidth from this memory (bytes/s)
system.physmem.bw_total::writebacks          18483628                       # Total bandwidth to/from this memory (bytes/s)
system.physmem.bw_total::switch_cpus0.inst        17485                       # Total bandwidth to/from this memory (bytes/s)
system.physmem.bw_total::switch_cpus0.data     48163589                       # Total bandwidth to/from this memory (bytes/s)
system.physmem.bw_total::switch_cpus1.inst        18733                       # Total bandwidth to/from this memory (bytes/s)
system.physmem.bw_total::switch_cpus1.data     40782627                       # Total bandwidth to/from this memory (bytes/s)
system.physmem.bw_total::total              107466062                       # Total bandwidth to/from this memory (bytes/s)
system.switch_cpus0.dtb.inst_hits                   0                       # ITB inst hits
system.switch_cpus0.dtb.inst_misses                 0                       # ITB inst misses
system.switch_cpus0.dtb.read_hits                   0                       # DTB read hits
system.switch_cpus0.dtb.read_misses                 0                       # DTB read misses
system.switch_cpus0.dtb.write_hits                  0                       # DTB write hits
system.switch_cpus0.dtb.write_misses                0                       # DTB write misses
system.switch_cpus0.dtb.flush_tlb                   0                       # Number of times complete TLB was flushed
system.switch_cpus0.dtb.flush_tlb_mva               0                       # Number of times TLB was flushed by MVA
system.switch_cpus0.dtb.flush_tlb_mva_asid            0                       # Number of times TLB was flushed by MVA & ASID
system.switch_cpus0.dtb.flush_tlb_asid              0                       # Number of times TLB was flushed by ASID
system.switch_cpus0.dtb.flush_entries               0                       # Number of entries that have been flushed from TLB
system.switch_cpus0.dtb.align_faults                0                       # Number of TLB faults due to alignment restrictions
system.switch_cpus0.dtb.prefetch_faults             0                       # Number of TLB faults due to prefetch
system.switch_cpus0.dtb.domain_faults               0                       # Number of TLB faults due to domain restrictions
system.switch_cpus0.dtb.perms_faults                0                       # Number of TLB faults due to permissions restrictions
system.switch_cpus0.dtb.read_accesses               0                       # DTB read accesses
system.switch_cpus0.dtb.write_accesses              0                       # DTB write accesses
system.switch_cpus0.dtb.inst_accesses               0                       # ITB inst accesses
system.switch_cpus0.dtb.hits                        0                       # DTB hits
system.switch_cpus0.dtb.misses                      0                       # DTB misses
system.switch_cpus0.dtb.accesses                    0                       # DTB accesses
system.switch_cpus0.itb.inst_hits                   0                       # ITB inst hits
system.switch_cpus0.itb.inst_misses                 0                       # ITB inst misses
system.switch_cpus0.itb.read_hits                   0                       # DTB read hits
system.switch_cpus0.itb.read_misses                 0                       # DTB read misses
system.switch_cpus0.itb.write_hits                  0                       # DTB write hits
system.switch_cpus0.itb.write_misses                0                       # DTB write misses
system.switch_cpus0.itb.flush_tlb                   0                       # Number of times complete TLB was flushed
system.switch_cpus0.itb.flush_tlb_mva               0                       # Number of times TLB was flushed by MVA
system.switch_cpus0.itb.flush_tlb_mva_asid            0                       # Number of times TLB was flushed by MVA & ASID
system.switch_cpus0.itb.flush_tlb_asid              0                       # Number of times TLB was flushed by ASID
system.switch_cpus0.itb.flush_entries               0                       # Number of entries that have been flushed from TLB
system.switch_cpus0.itb.align_faults                0                       # Number of TLB faults due to alignment restrictions
system.switch_cpus0.itb.prefetch_faults             0                       # Number of TLB faults due to prefetch
system.switch_cpus0.itb.domain_faults               0                       # Number of TLB faults due to domain restrictions
system.switch_cpus0.itb.perms_faults                0                       # Number of TLB faults due to permissions restrictions
system.switch_cpus0.itb.read_accesses               0                       # DTB read accesses
system.switch_cpus0.itb.write_accesses              0                       # DTB write accesses
system.switch_cpus0.itb.inst_accesses               0                       # ITB inst accesses
system.switch_cpus0.itb.hits                        0                       # DTB hits
system.switch_cpus0.itb.misses                      0                       # DTB misses
system.switch_cpus0.itb.accesses                    0                       # DTB accesses
system.cpu0.workload.num_syscalls                   0                       # Number of system calls
system.switch_cpus0.numCycles               245781058                       # number of cpu cycles simulated
system.switch_cpus0.numWorkItemsStarted             0                       # number of work items this cpu started
system.switch_cpus0.numWorkItemsCompleted            0                       # number of work items this cpu completed
system.switch_cpus0.BPredUnit.lookups        21501580                       # Number of BP lookups
system.switch_cpus0.BPredUnit.condPredicted     17431947                       # Number of conditional branches predicted
system.switch_cpus0.BPredUnit.condIncorrect      1978516                       # Number of conditional branches incorrect
system.switch_cpus0.BPredUnit.BTBLookups      8754823                       # Number of BTB lookups
system.switch_cpus0.BPredUnit.BTBHits         8145384                       # Number of BTB hits
system.switch_cpus0.BPredUnit.BTBCorrect            0                       # Number of correct BTB predictions (this stat may not work properly.
system.switch_cpus0.BPredUnit.usedRAS         2333400                       # Number of times the RAS was used to get a target.
system.switch_cpus0.BPredUnit.RASInCorrect        93598                       # Number of incorrect RAS predictions.
system.switch_cpus0.fetch.icacheStallCycles    186307186                       # Number of cycles fetch is stalled on an Icache miss
system.switch_cpus0.fetch.Insts             119881937                       # Number of instructions fetch has processed
system.switch_cpus0.fetch.Branches           21501580                       # Number of branches that fetch encountered
system.switch_cpus0.fetch.predictedBranches     10478784                       # Number of branches that fetch has predicted taken
system.switch_cpus0.fetch.Cycles             26386335                       # Number of cycles fetch has run and was not squashing or blocked
system.switch_cpus0.fetch.SquashCycles        6030959                       # Number of cycles fetch has spent squashing
system.switch_cpus0.fetch.BlockedCycles       5275371                       # Number of cycles fetch has spent blocked
system.switch_cpus0.fetch.MiscStallCycles            1                       # Number of cycles fetch has spent waiting on interrupts, or bad addresses, or out of MSHRs
system.switch_cpus0.fetch.PendingTrapStallCycles           36                       # Number of stall cycles due to pending traps
system.switch_cpus0.fetch.CacheLines         11510943                       # Number of cache lines fetched
system.switch_cpus0.fetch.IcacheSquashes      1976950                       # Number of outstanding Icache misses that were squashed
system.switch_cpus0.fetch.rateDist::samples    221995839                       # Number of instructions fetched each cycle (Total)
system.switch_cpus0.fetch.rateDist::mean     0.663261                       # Number of instructions fetched each cycle (Total)
system.switch_cpus0.fetch.rateDist::stdev     2.021912                       # Number of instructions fetched each cycle (Total)
system.switch_cpus0.fetch.rateDist::underflows            0      0.00%      0.00% # Number of instructions fetched each cycle (Total)
system.switch_cpus0.fetch.rateDist::0       195609504     88.11%     88.11% # Number of instructions fetched each cycle (Total)
system.switch_cpus0.fetch.rateDist::1         1837698      0.83%     88.94% # Number of instructions fetched each cycle (Total)
system.switch_cpus0.fetch.rateDist::2         3337082      1.50%     90.45% # Number of instructions fetched each cycle (Total)
system.switch_cpus0.fetch.rateDist::3         3090094      1.39%     91.84% # Number of instructions fetched each cycle (Total)
system.switch_cpus0.fetch.rateDist::4         1965133      0.89%     92.72% # Number of instructions fetched each cycle (Total)
system.switch_cpus0.fetch.rateDist::5         1616217      0.73%     93.45% # Number of instructions fetched each cycle (Total)
system.switch_cpus0.fetch.rateDist::6          924287      0.42%     93.87% # Number of instructions fetched each cycle (Total)
system.switch_cpus0.fetch.rateDist::7          954961      0.43%     94.30% # Number of instructions fetched each cycle (Total)
system.switch_cpus0.fetch.rateDist::8        12660863      5.70%    100.00% # Number of instructions fetched each cycle (Total)
system.switch_cpus0.fetch.rateDist::overflows            0      0.00%    100.00% # Number of instructions fetched each cycle (Total)
system.switch_cpus0.fetch.rateDist::min_value            0                       # Number of instructions fetched each cycle (Total)
system.switch_cpus0.fetch.rateDist::max_value            8                       # Number of instructions fetched each cycle (Total)
system.switch_cpus0.fetch.rateDist::total    221995839                       # Number of instructions fetched each cycle (Total)
system.switch_cpus0.fetch.branchRate         0.087483                       # Number of branch fetches per cycle
system.switch_cpus0.fetch.rate               0.487759                       # Number of inst fetches per cycle
system.switch_cpus0.decode.IdleCycles       184417308                       # Number of cycles decode is idle
system.switch_cpus0.decode.BlockedCycles      7182539                       # Number of cycles decode is blocked
system.switch_cpus0.decode.RunCycles         26324874                       # Number of cycles decode is running
system.switch_cpus0.decode.UnblockCycles        44433                       # Number of cycles decode is unblocking
system.switch_cpus0.decode.SquashCycles       4026684                       # Number of cycles decode is squashing
system.switch_cpus0.decode.BranchResolved      3732756                       # Number of times decode resolved a branch
system.switch_cpus0.decode.BranchMispred          226                       # Number of times decode detected a branch misprediction
system.switch_cpus0.decode.DecodedInsts     147142825                       # Number of instructions handled by decode
system.switch_cpus0.decode.SquashedInsts         1286                       # Number of squashed instructions handled by decode
system.switch_cpus0.rename.SquashCycles       4026684                       # Number of cycles rename is squashing
system.switch_cpus0.rename.IdleCycles       184888605                       # Number of cycles rename is idle
system.switch_cpus0.rename.BlockCycles        1292542                       # Number of cycles rename is blocking
system.switch_cpus0.rename.serializeStallCycles      4814085                       # count of cycles rename stalled for serializing inst
system.switch_cpus0.rename.RunCycles         25868735                       # Number of cycles rename is running
system.switch_cpus0.rename.UnblockCycles      1105187                       # Number of cycles rename is unblocking
system.switch_cpus0.rename.RenamedInsts     147019638                       # Number of instructions processed by rename
system.switch_cpus0.rename.IQFullEvents        177675                       # Number of times rename has blocked due to IQ full
system.switch_cpus0.rename.LSQFullEvents       478689                       # Number of times rename has blocked due to LSQ full
system.switch_cpus0.rename.RenamedOperands    208550789                       # Number of destination operands rename has renamed
system.switch_cpus0.rename.RenameLookups    684830558                       # Number of register rename lookups that rename has made
system.switch_cpus0.rename.int_rename_lookups    684830558                       # Number of integer rename lookups
system.switch_cpus0.rename.CommittedMaps    171704513                       # Number of HB maps that are committed
system.switch_cpus0.rename.UndoneMaps        36846267                       # Number of HB maps that are undone due to squashing
system.switch_cpus0.rename.serializingInsts        33814                       # count of serializing insts renamed
system.switch_cpus0.rename.tempSerializingInsts        16907                       # count of temporary serializing insts renamed
system.switch_cpus0.rename.skidInsts          4098917                       # count of insts added to the skid buffer
system.switch_cpus0.memDep0.insertedLoads     13862882                       # Number of loads inserted to the mem dependence unit.
system.switch_cpus0.memDep0.insertedStores      7183146                       # Number of stores inserted to the mem dependence unit.
system.switch_cpus0.memDep0.conflictingLoads        82053                       # Number of conflicting loads.
system.switch_cpus0.memDep0.conflictingStores      1597215                       # Number of conflicting stores.
system.switch_cpus0.iq.iqInstsAdded         146055729                       # Number of instructions added to the IQ (excludes non-spec)
system.switch_cpus0.iq.iqNonSpecInstsAdded        33814                       # Number of non-speculative instructions added to the IQ
system.switch_cpus0.iq.iqInstsIssued        137952377                       # Number of instructions issued
system.switch_cpus0.iq.iqSquashedInstsIssued       117127                       # Number of squashed instructions issued
system.switch_cpus0.iq.iqSquashedInstsExamined     21996632                       # Number of squashed instructions iterated over during squash; mainly for profiling
system.switch_cpus0.iq.iqSquashedOperandsExamined     46214159                       # Number of squashed operands that are examined and possibly removed from graph
system.switch_cpus0.iq.issued_per_cycle::samples    221995839                       # Number of insts issued each cycle
system.switch_cpus0.iq.issued_per_cycle::mean     0.621419                       # Number of insts issued each cycle
system.switch_cpus0.iq.issued_per_cycle::stdev     1.295466                       # Number of insts issued each cycle
system.switch_cpus0.iq.issued_per_cycle::underflows            0      0.00%      0.00% # Number of insts issued each cycle
system.switch_cpus0.iq.issued_per_cycle::0    162509297     73.20%     73.20% # Number of insts issued each cycle
system.switch_cpus0.iq.issued_per_cycle::1     25176404     11.34%     84.54% # Number of insts issued each cycle
system.switch_cpus0.iq.issued_per_cycle::2     13548879      6.10%     90.65% # Number of insts issued each cycle
system.switch_cpus0.iq.issued_per_cycle::3      6866273      3.09%     93.74% # Number of insts issued each cycle
system.switch_cpus0.iq.issued_per_cycle::4      8182434      3.69%     97.43% # Number of insts issued each cycle
system.switch_cpus0.iq.issued_per_cycle::5      2648620      1.19%     98.62% # Number of insts issued each cycle
system.switch_cpus0.iq.issued_per_cycle::6      2482953      1.12%     99.74% # Number of insts issued each cycle
system.switch_cpus0.iq.issued_per_cycle::7       438990      0.20%     99.94% # Number of insts issued each cycle
system.switch_cpus0.iq.issued_per_cycle::8       141989      0.06%    100.00% # Number of insts issued each cycle
system.switch_cpus0.iq.issued_per_cycle::overflows            0      0.00%    100.00% # Number of insts issued each cycle
system.switch_cpus0.iq.issued_per_cycle::min_value            0                       # Number of insts issued each cycle
system.switch_cpus0.iq.issued_per_cycle::max_value            8                       # Number of insts issued each cycle
system.switch_cpus0.iq.issued_per_cycle::total    221995839                       # Number of insts issued each cycle
system.switch_cpus0.iq.fu_full::No_OpClass            0      0.00%      0.00% # attempts to use FU when none available
system.switch_cpus0.iq.fu_full::IntAlu         416618     59.71%     59.71% # attempts to use FU when none available
system.switch_cpus0.iq.fu_full::IntMult             0      0.00%     59.71% # attempts to use FU when none available
system.switch_cpus0.iq.fu_full::IntDiv              0      0.00%     59.71% # attempts to use FU when none available
system.switch_cpus0.iq.fu_full::FloatAdd            0      0.00%     59.71% # attempts to use FU when none available
system.switch_cpus0.iq.fu_full::FloatCmp            0      0.00%     59.71% # attempts to use FU when none available
system.switch_cpus0.iq.fu_full::FloatCvt            0      0.00%     59.71% # attempts to use FU when none available
system.switch_cpus0.iq.fu_full::FloatMult            0      0.00%     59.71% # attempts to use FU when none available
system.switch_cpus0.iq.fu_full::FloatDiv            0      0.00%     59.71% # attempts to use FU when none available
system.switch_cpus0.iq.fu_full::FloatSqrt            0      0.00%     59.71% # attempts to use FU when none available
system.switch_cpus0.iq.fu_full::SimdAdd             0      0.00%     59.71% # attempts to use FU when none available
system.switch_cpus0.iq.fu_full::SimdAddAcc            0      0.00%     59.71% # attempts to use FU when none available
system.switch_cpus0.iq.fu_full::SimdAlu             0      0.00%     59.71% # attempts to use FU when none available
system.switch_cpus0.iq.fu_full::SimdCmp             0      0.00%     59.71% # attempts to use FU when none available
system.switch_cpus0.iq.fu_full::SimdCvt             0      0.00%     59.71% # attempts to use FU when none available
system.switch_cpus0.iq.fu_full::SimdMisc            0      0.00%     59.71% # attempts to use FU when none available
system.switch_cpus0.iq.fu_full::SimdMult            0      0.00%     59.71% # attempts to use FU when none available
system.switch_cpus0.iq.fu_full::SimdMultAcc            0      0.00%     59.71% # attempts to use FU when none available
system.switch_cpus0.iq.fu_full::SimdShift            0      0.00%     59.71% # attempts to use FU when none available
system.switch_cpus0.iq.fu_full::SimdShiftAcc            0      0.00%     59.71% # attempts to use FU when none available
system.switch_cpus0.iq.fu_full::SimdSqrt            0      0.00%     59.71% # attempts to use FU when none available
system.switch_cpus0.iq.fu_full::SimdFloatAdd            0      0.00%     59.71% # attempts to use FU when none available
system.switch_cpus0.iq.fu_full::SimdFloatAlu            0      0.00%     59.71% # attempts to use FU when none available
system.switch_cpus0.iq.fu_full::SimdFloatCmp            0      0.00%     59.71% # attempts to use FU when none available
system.switch_cpus0.iq.fu_full::SimdFloatCvt            0      0.00%     59.71% # attempts to use FU when none available
system.switch_cpus0.iq.fu_full::SimdFloatDiv            0      0.00%     59.71% # attempts to use FU when none available
system.switch_cpus0.iq.fu_full::SimdFloatMisc            0      0.00%     59.71% # attempts to use FU when none available
system.switch_cpus0.iq.fu_full::SimdFloatMult            0      0.00%     59.71% # attempts to use FU when none available
system.switch_cpus0.iq.fu_full::SimdFloatMultAcc            0      0.00%     59.71% # attempts to use FU when none available
system.switch_cpus0.iq.fu_full::SimdFloatSqrt            0      0.00%     59.71% # attempts to use FU when none available
system.switch_cpus0.iq.fu_full::MemRead        143258     20.53%     80.25% # attempts to use FU when none available
system.switch_cpus0.iq.fu_full::MemWrite       137819     19.75%    100.00% # attempts to use FU when none available
system.switch_cpus0.iq.fu_full::IprAccess            0      0.00%    100.00% # attempts to use FU when none available
system.switch_cpus0.iq.fu_full::InstPrefetch            0      0.00%    100.00% # attempts to use FU when none available
system.switch_cpus0.iq.FU_type_0::No_OpClass            0      0.00%      0.00% # Type of FU issued
system.switch_cpus0.iq.FU_type_0::IntAlu    116008664     84.09%     84.09% # Type of FU issued
system.switch_cpus0.iq.FU_type_0::IntMult      1978300      1.43%     85.53% # Type of FU issued
system.switch_cpus0.iq.FU_type_0::IntDiv            0      0.00%     85.53% # Type of FU issued
system.switch_cpus0.iq.FU_type_0::FloatAdd            0      0.00%     85.53% # Type of FU issued
system.switch_cpus0.iq.FU_type_0::FloatCmp            0      0.00%     85.53% # Type of FU issued
system.switch_cpus0.iq.FU_type_0::FloatCvt            0      0.00%     85.53% # Type of FU issued
system.switch_cpus0.iq.FU_type_0::FloatMult            0      0.00%     85.53% # Type of FU issued
system.switch_cpus0.iq.FU_type_0::FloatDiv            0      0.00%     85.53% # Type of FU issued
system.switch_cpus0.iq.FU_type_0::FloatSqrt            0      0.00%     85.53% # Type of FU issued
system.switch_cpus0.iq.FU_type_0::SimdAdd            0      0.00%     85.53% # Type of FU issued
system.switch_cpus0.iq.FU_type_0::SimdAddAcc            0      0.00%     85.53% # Type of FU issued
system.switch_cpus0.iq.FU_type_0::SimdAlu            0      0.00%     85.53% # Type of FU issued
system.switch_cpus0.iq.FU_type_0::SimdCmp            0      0.00%     85.53% # Type of FU issued
system.switch_cpus0.iq.FU_type_0::SimdCvt            0      0.00%     85.53% # Type of FU issued
system.switch_cpus0.iq.FU_type_0::SimdMisc            0      0.00%     85.53% # Type of FU issued
system.switch_cpus0.iq.FU_type_0::SimdMult            0      0.00%     85.53% # Type of FU issued
system.switch_cpus0.iq.FU_type_0::SimdMultAcc            0      0.00%     85.53% # Type of FU issued
system.switch_cpus0.iq.FU_type_0::SimdShift            0      0.00%     85.53% # Type of FU issued
system.switch_cpus0.iq.FU_type_0::SimdShiftAcc            0      0.00%     85.53% # Type of FU issued
system.switch_cpus0.iq.FU_type_0::SimdSqrt            0      0.00%     85.53% # Type of FU issued
system.switch_cpus0.iq.FU_type_0::SimdFloatAdd            0      0.00%     85.53% # Type of FU issued
system.switch_cpus0.iq.FU_type_0::SimdFloatAlu            0      0.00%     85.53% # Type of FU issued
system.switch_cpus0.iq.FU_type_0::SimdFloatCmp            0      0.00%     85.53% # Type of FU issued
system.switch_cpus0.iq.FU_type_0::SimdFloatCvt            0      0.00%     85.53% # Type of FU issued
system.switch_cpus0.iq.FU_type_0::SimdFloatDiv            0      0.00%     85.53% # Type of FU issued
system.switch_cpus0.iq.FU_type_0::SimdFloatMisc        16907      0.01%     85.54% # Type of FU issued
system.switch_cpus0.iq.FU_type_0::SimdFloatMult            0      0.00%     85.54% # Type of FU issued
system.switch_cpus0.iq.FU_type_0::SimdFloatMultAcc            0      0.00%     85.54% # Type of FU issued
system.switch_cpus0.iq.FU_type_0::SimdFloatSqrt            0      0.00%     85.54% # Type of FU issued
system.switch_cpus0.iq.FU_type_0::MemRead     12787992      9.27%     94.81% # Type of FU issued
system.switch_cpus0.iq.FU_type_0::MemWrite      7160514      5.19%    100.00% # Type of FU issued
system.switch_cpus0.iq.FU_type_0::IprAccess            0      0.00%    100.00% # Type of FU issued
system.switch_cpus0.iq.FU_type_0::InstPrefetch            0      0.00%    100.00% # Type of FU issued
system.switch_cpus0.iq.FU_type_0::total     137952377                       # Type of FU issued
system.switch_cpus0.iq.rate                  0.561282                       # Inst issue rate
system.switch_cpus0.iq.fu_busy_cnt             697695                       # FU busy when requested
system.switch_cpus0.iq.fu_busy_rate          0.005058                       # FU busy rate (busy events/executed inst)
system.switch_cpus0.iq.int_inst_queue_reads    498715414                       # Number of integer instruction queue reads
system.switch_cpus0.iq.int_inst_queue_writes    168086380                       # Number of integer instruction queue writes
system.switch_cpus0.iq.int_inst_queue_wakeup_accesses    134971073                       # Number of integer instruction queue wakeup accesses
system.switch_cpus0.iq.fp_inst_queue_reads            0                       # Number of floating instruction queue reads
system.switch_cpus0.iq.fp_inst_queue_writes            0                       # Number of floating instruction queue writes
system.switch_cpus0.iq.fp_inst_queue_wakeup_accesses            0                       # Number of floating instruction queue wakeup accesses
system.switch_cpus0.iq.int_alu_accesses     138650072                       # Number of integer alu accesses
system.switch_cpus0.iq.fp_alu_accesses              0                       # Number of floating point alu accesses
system.switch_cpus0.iew.lsq.thread0.forwLoads       268385                       # Number of loads that had data forwarded from stores
system.switch_cpus0.iew.lsq.thread0.invAddrLoads            0                       # Number of loads ignored due to an invalid address
system.switch_cpus0.iew.lsq.thread0.squashedLoads      2669461                       # Number of loads squashed
system.switch_cpus0.iew.lsq.thread0.ignoredResponses            4                       # Number of memory responses ignored because the instruction is squashed
system.switch_cpus0.iew.lsq.thread0.memOrderViolation          205                       # Number of memory ordering violations
system.switch_cpus0.iew.lsq.thread0.squashedStores        92118                       # Number of stores squashed
system.switch_cpus0.iew.lsq.thread0.invAddrSwpfs            0                       # Number of software prefetches ignored due to an invalid address
system.switch_cpus0.iew.lsq.thread0.blockedLoads            0                       # Number of blocked loads due to partial load-store forwarding
system.switch_cpus0.iew.lsq.thread0.rescheduledLoads            0                       # Number of loads that were rescheduled
system.switch_cpus0.iew.lsq.thread0.cacheBlocked            0                       # Number of times an access to memory failed due to the cache being blocked
system.switch_cpus0.iew.iewIdleCycles               0                       # Number of cycles IEW is idle
system.switch_cpus0.iew.iewSquashCycles       4026684                       # Number of cycles IEW is squashing
system.switch_cpus0.iew.iewBlockCycles         912172                       # Number of cycles IEW is blocking
system.switch_cpus0.iew.iewUnblockCycles       114096                       # Number of cycles IEW is unblocking
system.switch_cpus0.iew.iewDispatchedInsts    146089546                       # Number of instructions dispatched to IQ
system.switch_cpus0.iew.iewDispSquashedInsts         8424                       # Number of squashed instructions skipped by dispatch
system.switch_cpus0.iew.iewDispLoadInsts     13862882                       # Number of dispatched load instructions
system.switch_cpus0.iew.iewDispStoreInsts      7183146                       # Number of dispatched store instructions
system.switch_cpus0.iew.iewDispNonSpecInsts        16907                       # Number of dispatched non-speculative instructions
system.switch_cpus0.iew.iewIQFullEvents         99623                       # Number of times the IQ has become full, causing a stall
system.switch_cpus0.iew.iewLSQFullEvents            0                       # Number of times the LSQ has become full, causing a stall
system.switch_cpus0.iew.memOrderViolationEvents          205                       # Number of memory order violations
system.switch_cpus0.iew.predictedTakenIncorrect      1056891                       # Number of branches that were predicted taken incorrectly
system.switch_cpus0.iew.predictedNotTakenIncorrect      1101155                       # Number of branches that were predicted not taken incorrectly
system.switch_cpus0.iew.branchMispredicts      2158046                       # Number of branch mispredicts detected at execute
system.switch_cpus0.iew.iewExecutedInsts    135964301                       # Number of executed instructions
system.switch_cpus0.iew.iewExecLoadInsts     12338910                       # Number of load instructions executed
system.switch_cpus0.iew.iewExecSquashedInsts      1988075                       # Number of squashed instructions skipped in execute
system.switch_cpus0.iew.exec_swp                    0                       # number of swp insts executed
system.switch_cpus0.iew.exec_nop                    3                       # number of nop insts executed
system.switch_cpus0.iew.exec_refs            19499273                       # number of memory reference insts executed
system.switch_cpus0.iew.exec_branches        19193841                       # Number of branches executed
system.switch_cpus0.iew.exec_stores           7160363                       # Number of stores executed
system.switch_cpus0.iew.exec_rate            0.553193                       # Inst execution rate
system.switch_cpus0.iew.wb_sent             134971118                       # cumulative count of insts sent to commit
system.switch_cpus0.iew.wb_count            134971073                       # cumulative count of insts written-back
system.switch_cpus0.iew.wb_producers         77879370                       # num instructions producing a value
system.switch_cpus0.iew.wb_consumers        216922797                       # num instructions consuming a value
system.switch_cpus0.iew.wb_penalized                0                       # number of instrctions required to write to 'other' IQ
system.switch_cpus0.iew.wb_rate              0.549152                       # insts written-back per cycle
system.switch_cpus0.iew.wb_fanout            0.359019                       # average fanout of values written-back
system.switch_cpus0.iew.wb_penalized_rate            0                       # fraction of instructions written-back that wrote to 'other' IQ
system.switch_cpus0.commit.commitCommittedInsts    100000001                       # The number of committed instructions
system.switch_cpus0.commit.commitCommittedOps    123129333                       # The number of committed instructions
system.switch_cpus0.commit.commitSquashedInsts     22960543                       # The number of squashed insts skipped by commit
system.switch_cpus0.commit.commitNonSpecStalls        33814                       # The number of times commit has been forced to stall to communicate backwards
system.switch_cpus0.commit.branchMispredicts      2003650                       # The number of times a branch was mispredicted
system.switch_cpus0.commit.committed_per_cycle::samples    217969155                       # Number of insts commited each cycle
system.switch_cpus0.commit.committed_per_cycle::mean     0.564893                       # Number of insts commited each cycle
system.switch_cpus0.commit.committed_per_cycle::stdev     1.364551                       # Number of insts commited each cycle
system.switch_cpus0.commit.committed_per_cycle::underflows            0      0.00%      0.00% # Number of insts commited each cycle
system.switch_cpus0.commit.committed_per_cycle::0    166113770     76.21%     76.21% # Number of insts commited each cycle
system.switch_cpus0.commit.committed_per_cycle::1     23871361     10.95%     87.16% # Number of insts commited each cycle
system.switch_cpus0.commit.committed_per_cycle::2     12381906      5.68%     92.84% # Number of insts commited each cycle
system.switch_cpus0.commit.committed_per_cycle::3      3980599      1.83%     94.67% # Number of insts commited each cycle
system.switch_cpus0.commit.committed_per_cycle::4      5465054      2.51%     97.18% # Number of insts commited each cycle
system.switch_cpus0.commit.committed_per_cycle::5      1835374      0.84%     98.02% # Number of insts commited each cycle
system.switch_cpus0.commit.committed_per_cycle::6      1057868      0.49%     98.50% # Number of insts commited each cycle
system.switch_cpus0.commit.committed_per_cycle::7       937715      0.43%     98.93% # Number of insts commited each cycle
system.switch_cpus0.commit.committed_per_cycle::8      2325508      1.07%    100.00% # Number of insts commited each cycle
system.switch_cpus0.commit.committed_per_cycle::overflows            0      0.00%    100.00% # Number of insts commited each cycle
system.switch_cpus0.commit.committed_per_cycle::min_value            0                       # Number of insts commited each cycle
system.switch_cpus0.commit.committed_per_cycle::max_value            8                       # Number of insts commited each cycle
system.switch_cpus0.commit.committed_per_cycle::total    217969155                       # Number of insts commited each cycle
system.switch_cpus0.commit.committedInsts    100000001                       # Number of instructions committed
system.switch_cpus0.commit.committedOps     123129333                       # Number of ops (including micro ops) committed
system.switch_cpus0.commit.swp_count                0                       # Number of s/w prefetches committed
system.switch_cpus0.commit.refs              18284449                       # Number of memory references committed
system.switch_cpus0.commit.loads             11193421                       # Number of loads committed
system.switch_cpus0.commit.membars              16907                       # Number of memory barriers committed
system.switch_cpus0.commit.branches          17772297                       # Number of branches committed
system.switch_cpus0.commit.fp_insts                 0                       # Number of committed floating point instructions.
system.switch_cpus0.commit.int_insts        110930175                       # Number of committed integer instructions.
system.switch_cpus0.commit.function_calls      2539549                       # Number of function calls committed.
system.switch_cpus0.commit.bw_lim_events      2325508                       # number cycles where commit BW limit reached
system.switch_cpus0.commit.bw_limited               0                       # number of insts not committed due to BW limits
system.switch_cpus0.rob.rob_reads           361733523                       # The number of ROB reads
system.switch_cpus0.rob.rob_writes          296206474                       # The number of ROB writes
system.switch_cpus0.timesIdled                2881312                       # Number of times that the entire CPU went into an idle state and unscheduled itself
system.switch_cpus0.idleCycles               23785219                       # Total number of cycles that the CPU has spent unscheduled due to idling
system.switch_cpus0.committedInsts          100000001                       # Number of Instructions Simulated
system.switch_cpus0.committedOps            123129333                       # Number of Ops (including micro ops) Simulated
system.switch_cpus0.committedInsts_total    100000001                       # Number of Instructions Simulated
system.switch_cpus0.cpi                      2.457811                       # CPI: Cycles Per Instruction
system.switch_cpus0.cpi_total                2.457811                       # CPI: Total CPI of All Threads
system.switch_cpus0.ipc                      0.406866                       # IPC: Instructions Per Cycle
system.switch_cpus0.ipc_total                0.406866                       # IPC: Total IPC of All Threads
system.switch_cpus0.int_regfile_reads       611533736                       # number of integer regfile reads
system.switch_cpus0.int_regfile_writes      188886171                       # number of integer regfile writes
system.switch_cpus0.misc_regfile_reads      135805732                       # number of misc regfile reads
system.switch_cpus0.misc_regfile_writes         33814                       # number of misc regfile writes
system.switch_cpus1.dtb.inst_hits                   0                       # ITB inst hits
system.switch_cpus1.dtb.inst_misses                 0                       # ITB inst misses
system.switch_cpus1.dtb.read_hits                   0                       # DTB read hits
system.switch_cpus1.dtb.read_misses                 0                       # DTB read misses
system.switch_cpus1.dtb.write_hits                  0                       # DTB write hits
system.switch_cpus1.dtb.write_misses                0                       # DTB write misses
system.switch_cpus1.dtb.flush_tlb                   0                       # Number of times complete TLB was flushed
system.switch_cpus1.dtb.flush_tlb_mva               0                       # Number of times TLB was flushed by MVA
system.switch_cpus1.dtb.flush_tlb_mva_asid            0                       # Number of times TLB was flushed by MVA & ASID
system.switch_cpus1.dtb.flush_tlb_asid              0                       # Number of times TLB was flushed by ASID
system.switch_cpus1.dtb.flush_entries               0                       # Number of entries that have been flushed from TLB
system.switch_cpus1.dtb.align_faults                0                       # Number of TLB faults due to alignment restrictions
system.switch_cpus1.dtb.prefetch_faults             0                       # Number of TLB faults due to prefetch
system.switch_cpus1.dtb.domain_faults               0                       # Number of TLB faults due to domain restrictions
system.switch_cpus1.dtb.perms_faults                0                       # Number of TLB faults due to permissions restrictions
system.switch_cpus1.dtb.read_accesses               0                       # DTB read accesses
system.switch_cpus1.dtb.write_accesses              0                       # DTB write accesses
system.switch_cpus1.dtb.inst_accesses               0                       # ITB inst accesses
system.switch_cpus1.dtb.hits                        0                       # DTB hits
system.switch_cpus1.dtb.misses                      0                       # DTB misses
system.switch_cpus1.dtb.accesses                    0                       # DTB accesses
system.switch_cpus1.itb.inst_hits                   0                       # ITB inst hits
system.switch_cpus1.itb.inst_misses                 0                       # ITB inst misses
system.switch_cpus1.itb.read_hits                   0                       # DTB read hits
system.switch_cpus1.itb.read_misses                 0                       # DTB read misses
system.switch_cpus1.itb.write_hits                  0                       # DTB write hits
system.switch_cpus1.itb.write_misses                0                       # DTB write misses
system.switch_cpus1.itb.flush_tlb                   0                       # Number of times complete TLB was flushed
system.switch_cpus1.itb.flush_tlb_mva               0                       # Number of times TLB was flushed by MVA
system.switch_cpus1.itb.flush_tlb_mva_asid            0                       # Number of times TLB was flushed by MVA & ASID
system.switch_cpus1.itb.flush_tlb_asid              0                       # Number of times TLB was flushed by ASID
system.switch_cpus1.itb.flush_entries               0                       # Number of entries that have been flushed from TLB
system.switch_cpus1.itb.align_faults                0                       # Number of TLB faults due to alignment restrictions
system.switch_cpus1.itb.prefetch_faults             0                       # Number of TLB faults due to prefetch
system.switch_cpus1.itb.domain_faults               0                       # Number of TLB faults due to domain restrictions
system.switch_cpus1.itb.perms_faults                0                       # Number of TLB faults due to permissions restrictions
system.switch_cpus1.itb.read_accesses               0                       # DTB read accesses
system.switch_cpus1.itb.write_accesses              0                       # DTB write accesses
system.switch_cpus1.itb.inst_accesses               0                       # ITB inst accesses
system.switch_cpus1.itb.hits                        0                       # DTB hits
system.switch_cpus1.itb.misses                      0                       # DTB misses
system.switch_cpus1.itb.accesses                    0                       # DTB accesses
system.cpu1.workload.num_syscalls                   0                       # Number of system calls
system.switch_cpus1.numCycles               245781058                       # number of cpu cycles simulated
system.switch_cpus1.numWorkItemsStarted             0                       # number of work items this cpu started
system.switch_cpus1.numWorkItemsCompleted            0                       # number of work items this cpu completed
system.switch_cpus1.BPredUnit.lookups        21360542                       # Number of BP lookups
system.switch_cpus1.BPredUnit.condPredicted     17527387                       # Number of conditional branches predicted
system.switch_cpus1.BPredUnit.condIncorrect      1996128                       # Number of conditional branches incorrect
system.switch_cpus1.BPredUnit.BTBLookups      9041999                       # Number of BTB lookups
system.switch_cpus1.BPredUnit.BTBHits         8408991                       # Number of BTB hits
system.switch_cpus1.BPredUnit.BTBCorrect            0                       # Number of correct BTB predictions (this stat may not work properly.
system.switch_cpus1.BPredUnit.usedRAS         2131419                       # Number of times the RAS was used to get a target.
system.switch_cpus1.BPredUnit.RASInCorrect        93980                       # Number of incorrect RAS predictions.
system.switch_cpus1.fetch.icacheStallCycles    191603394                       # Number of cycles fetch is stalled on an Icache miss
system.switch_cpus1.fetch.Insts             117182927                       # Number of instructions fetch has processed
system.switch_cpus1.fetch.Branches           21360542                       # Number of branches that fetch encountered
system.switch_cpus1.fetch.predictedBranches     10540410                       # Number of branches that fetch has predicted taken
system.switch_cpus1.fetch.Cycles             25266318                       # Number of cycles fetch has run and was not squashing or blocked
system.switch_cpus1.fetch.SquashCycles        5523913                       # Number of cycles fetch has spent squashing
system.switch_cpus1.fetch.BlockedCycles       8394551                       # Number of cycles fetch has spent blocked
system.switch_cpus1.fetch.CacheLines         11585379                       # Number of cache lines fetched
system.switch_cpus1.fetch.IcacheSquashes      1987317                       # Number of outstanding Icache misses that were squashed
system.switch_cpus1.fetch.rateDist::samples    228774754                       # Number of instructions fetched each cycle (Total)
system.switch_cpus1.fetch.rateDist::mean     0.628297                       # Number of instructions fetched each cycle (Total)
system.switch_cpus1.fetch.rateDist::stdev     1.986473                       # Number of instructions fetched each cycle (Total)
system.switch_cpus1.fetch.rateDist::underflows            0      0.00%      0.00% # Number of instructions fetched each cycle (Total)
system.switch_cpus1.fetch.rateDist::0       203508436     88.96%     88.96% # Number of instructions fetched each cycle (Total)
system.switch_cpus1.fetch.rateDist::1         1881732      0.82%     89.78% # Number of instructions fetched each cycle (Total)
system.switch_cpus1.fetch.rateDist::2         3409803      1.49%     91.27% # Number of instructions fetched each cycle (Total)
system.switch_cpus1.fetch.rateDist::3         2015164      0.88%     92.15% # Number of instructions fetched each cycle (Total)
system.switch_cpus1.fetch.rateDist::4         1652355      0.72%     92.87% # Number of instructions fetched each cycle (Total)
system.switch_cpus1.fetch.rateDist::5         1470299      0.64%     93.51% # Number of instructions fetched each cycle (Total)
system.switch_cpus1.fetch.rateDist::6          815162      0.36%     93.87% # Number of instructions fetched each cycle (Total)
system.switch_cpus1.fetch.rateDist::7         2034725      0.89%     94.76% # Number of instructions fetched each cycle (Total)
system.switch_cpus1.fetch.rateDist::8        11987078      5.24%    100.00% # Number of instructions fetched each cycle (Total)
system.switch_cpus1.fetch.rateDist::overflows            0      0.00%    100.00% # Number of instructions fetched each cycle (Total)
system.switch_cpus1.fetch.rateDist::min_value            0                       # Number of instructions fetched each cycle (Total)
system.switch_cpus1.fetch.rateDist::max_value            8                       # Number of instructions fetched each cycle (Total)
system.switch_cpus1.fetch.rateDist::total    228774754                       # Number of instructions fetched each cycle (Total)
system.switch_cpus1.fetch.branchRate         0.086909                       # Number of branch fetches per cycle
system.switch_cpus1.fetch.rate               0.476778                       # Number of inst fetches per cycle
system.switch_cpus1.decode.IdleCycles       190027006                       # Number of cycles decode is idle
system.switch_cpus1.decode.BlockedCycles      9982952                       # Number of cycles decode is blocked
system.switch_cpus1.decode.RunCycles         25192557                       # Number of cycles decode is running
system.switch_cpus1.decode.UnblockCycles        61944                       # Number of cycles decode is unblocking
system.switch_cpus1.decode.SquashCycles       3510284                       # Number of cycles decode is squashing
system.switch_cpus1.decode.BranchResolved      3511544                       # Number of times decode resolved a branch
system.switch_cpus1.decode.BranchMispred          207                       # Number of times decode detected a branch misprediction
system.switch_cpus1.decode.DecodedInsts     143677653                       # Number of instructions handled by decode
system.switch_cpus1.decode.SquashedInsts         1184                       # Number of squashed instructions handled by decode
system.switch_cpus1.rename.SquashCycles       3510284                       # Number of cycles rename is squashing
system.switch_cpus1.rename.IdleCycles       190308051                       # Number of cycles rename is idle
system.switch_cpus1.rename.BlockCycles         786135                       # Number of cycles rename is blocking
system.switch_cpus1.rename.serializeStallCycles      8336808                       # count of cycles rename stalled for serializing inst
system.switch_cpus1.rename.RunCycles         24957017                       # Number of cycles rename is running
system.switch_cpus1.rename.UnblockCycles       876450                       # Number of cycles rename is unblocking
system.switch_cpus1.rename.RenamedInsts     143633474                       # Number of instructions processed by rename
system.switch_cpus1.rename.IQFullEvents         95858                       # Number of times rename has blocked due to IQ full
system.switch_cpus1.rename.LSQFullEvents       506069                       # Number of times rename has blocked due to LSQ full
system.switch_cpus1.rename.RenamedOperands    202379407                       # Number of destination operands rename has renamed
system.switch_cpus1.rename.RenameLookups    666589505                       # Number of register rename lookups that rename has made
system.switch_cpus1.rename.int_rename_lookups    666589505                       # Number of integer rename lookups
system.switch_cpus1.rename.CommittedMaps    172063601                       # Number of HB maps that are committed
system.switch_cpus1.rename.UndoneMaps        30315753                       # Number of HB maps that are undone due to squashing
system.switch_cpus1.rename.serializingInsts        34236                       # count of serializing insts renamed
system.switch_cpus1.rename.tempSerializingInsts        17142                       # count of temporary serializing insts renamed
system.switch_cpus1.rename.skidInsts          2533337                       # count of insts added to the skid buffer
system.switch_cpus1.memDep0.insertedLoads     13326509                       # Number of loads inserted to the mem dependence unit.
system.switch_cpus1.memDep0.insertedStores      7195882                       # Number of stores inserted to the mem dependence unit.
system.switch_cpus1.memDep0.conflictingLoads        70030                       # Number of conflicting loads.
system.switch_cpus1.memDep0.conflictingStores      1629684                       # Number of conflicting stores.
system.switch_cpus1.iq.iqInstsAdded         142546835                       # Number of instructions added to the IQ (excludes non-spec)
system.switch_cpus1.iq.iqNonSpecInstsAdded        34238                       # Number of non-speculative instructions added to the IQ
system.switch_cpus1.iq.iqInstsIssued        136000915                       # Number of instructions issued
system.switch_cpus1.iq.iqSquashedInstsIssued        63859                       # Number of squashed instructions issued
system.switch_cpus1.iq.iqSquashedInstsExamined     16763927                       # Number of squashed instructions iterated over during squash; mainly for profiling
system.switch_cpus1.iq.iqSquashedOperandsExamined     34508419                       # Number of squashed operands that are examined and possibly removed from graph
system.switch_cpus1.iq.iqSquashedNonSpecRemoved           46                       # Number of squashed non-spec instructions that were removed
system.switch_cpus1.iq.issued_per_cycle::samples    228774754                       # Number of insts issued each cycle
system.switch_cpus1.iq.issued_per_cycle::mean     0.594475                       # Number of insts issued each cycle
system.switch_cpus1.iq.issued_per_cycle::stdev     1.282717                       # Number of insts issued each cycle
system.switch_cpus1.iq.issued_per_cycle::underflows            0      0.00%      0.00% # Number of insts issued each cycle
system.switch_cpus1.iq.issued_per_cycle::0    172134000     75.24%     75.24% # Number of insts issued each cycle
system.switch_cpus1.iq.issued_per_cycle::1     22544782      9.85%     85.10% # Number of insts issued each cycle
system.switch_cpus1.iq.issued_per_cycle::2     11797339      5.16%     90.25% # Number of insts issued each cycle
system.switch_cpus1.iq.issued_per_cycle::3      8308955      3.63%     93.88% # Number of insts issued each cycle
system.switch_cpus1.iq.issued_per_cycle::4      8314603      3.63%     97.52% # Number of insts issued each cycle
system.switch_cpus1.iq.issued_per_cycle::5      2973668      1.30%     98.82% # Number of insts issued each cycle
system.switch_cpus1.iq.issued_per_cycle::6      2268881      0.99%     99.81% # Number of insts issued each cycle
system.switch_cpus1.iq.issued_per_cycle::7       265656      0.12%     99.93% # Number of insts issued each cycle
system.switch_cpus1.iq.issued_per_cycle::8       166870      0.07%    100.00% # Number of insts issued each cycle
system.switch_cpus1.iq.issued_per_cycle::overflows            0      0.00%    100.00% # Number of insts issued each cycle
system.switch_cpus1.iq.issued_per_cycle::min_value            0                       # Number of insts issued each cycle
system.switch_cpus1.iq.issued_per_cycle::max_value            8                       # Number of insts issued each cycle
system.switch_cpus1.iq.issued_per_cycle::total    228774754                       # Number of insts issued each cycle
system.switch_cpus1.iq.fu_full::No_OpClass            0      0.00%      0.00% # attempts to use FU when none available
system.switch_cpus1.iq.fu_full::IntAlu          49901     13.71%     13.71% # attempts to use FU when none available
system.switch_cpus1.iq.fu_full::IntMult             0      0.00%     13.71% # attempts to use FU when none available
system.switch_cpus1.iq.fu_full::IntDiv              0      0.00%     13.71% # attempts to use FU when none available
system.switch_cpus1.iq.fu_full::FloatAdd            0      0.00%     13.71% # attempts to use FU when none available
system.switch_cpus1.iq.fu_full::FloatCmp            0      0.00%     13.71% # attempts to use FU when none available
system.switch_cpus1.iq.fu_full::FloatCvt            0      0.00%     13.71% # attempts to use FU when none available
system.switch_cpus1.iq.fu_full::FloatMult            0      0.00%     13.71% # attempts to use FU when none available
system.switch_cpus1.iq.fu_full::FloatDiv            0      0.00%     13.71% # attempts to use FU when none available
system.switch_cpus1.iq.fu_full::FloatSqrt            0      0.00%     13.71% # attempts to use FU when none available
system.switch_cpus1.iq.fu_full::SimdAdd             0      0.00%     13.71% # attempts to use FU when none available
system.switch_cpus1.iq.fu_full::SimdAddAcc            0      0.00%     13.71% # attempts to use FU when none available
system.switch_cpus1.iq.fu_full::SimdAlu             0      0.00%     13.71% # attempts to use FU when none available
system.switch_cpus1.iq.fu_full::SimdCmp             0      0.00%     13.71% # attempts to use FU when none available
system.switch_cpus1.iq.fu_full::SimdCvt             0      0.00%     13.71% # attempts to use FU when none available
system.switch_cpus1.iq.fu_full::SimdMisc            0      0.00%     13.71% # attempts to use FU when none available
system.switch_cpus1.iq.fu_full::SimdMult            0      0.00%     13.71% # attempts to use FU when none available
system.switch_cpus1.iq.fu_full::SimdMultAcc            0      0.00%     13.71% # attempts to use FU when none available
system.switch_cpus1.iq.fu_full::SimdShift            0      0.00%     13.71% # attempts to use FU when none available
system.switch_cpus1.iq.fu_full::SimdShiftAcc            0      0.00%     13.71% # attempts to use FU when none available
system.switch_cpus1.iq.fu_full::SimdSqrt            0      0.00%     13.71% # attempts to use FU when none available
system.switch_cpus1.iq.fu_full::SimdFloatAdd            0      0.00%     13.71% # attempts to use FU when none available
system.switch_cpus1.iq.fu_full::SimdFloatAlu            0      0.00%     13.71% # attempts to use FU when none available
system.switch_cpus1.iq.fu_full::SimdFloatCmp            0      0.00%     13.71% # attempts to use FU when none available
system.switch_cpus1.iq.fu_full::SimdFloatCvt            0      0.00%     13.71% # attempts to use FU when none available
system.switch_cpus1.iq.fu_full::SimdFloatDiv            0      0.00%     13.71% # attempts to use FU when none available
system.switch_cpus1.iq.fu_full::SimdFloatMisc            0      0.00%     13.71% # attempts to use FU when none available
system.switch_cpus1.iq.fu_full::SimdFloatMult            0      0.00%     13.71% # attempts to use FU when none available
system.switch_cpus1.iq.fu_full::SimdFloatMultAcc            0      0.00%     13.71% # attempts to use FU when none available
system.switch_cpus1.iq.fu_full::SimdFloatSqrt            0      0.00%     13.71% # attempts to use FU when none available
system.switch_cpus1.iq.fu_full::MemRead        162434     44.61%     58.32% # attempts to use FU when none available
system.switch_cpus1.iq.fu_full::MemWrite       151766     41.68%    100.00% # attempts to use FU when none available
system.switch_cpus1.iq.fu_full::IprAccess            0      0.00%    100.00% # attempts to use FU when none available
system.switch_cpus1.iq.fu_full::InstPrefetch            0      0.00%    100.00% # attempts to use FU when none available
system.switch_cpus1.iq.FU_type_0::No_OpClass            0      0.00%      0.00% # Type of FU issued
system.switch_cpus1.iq.FU_type_0::IntAlu    114751612     84.38%     84.38% # Type of FU issued
system.switch_cpus1.iq.FU_type_0::IntMult      1860750      1.37%     85.74% # Type of FU issued
system.switch_cpus1.iq.FU_type_0::IntDiv            0      0.00%     85.74% # Type of FU issued
system.switch_cpus1.iq.FU_type_0::FloatAdd            0      0.00%     85.74% # Type of FU issued
system.switch_cpus1.iq.FU_type_0::FloatCmp            0      0.00%     85.74% # Type of FU issued
system.switch_cpus1.iq.FU_type_0::FloatCvt            0      0.00%     85.74% # Type of FU issued
system.switch_cpus1.iq.FU_type_0::FloatMult            0      0.00%     85.74% # Type of FU issued
system.switch_cpus1.iq.FU_type_0::FloatDiv            0      0.00%     85.74% # Type of FU issued
system.switch_cpus1.iq.FU_type_0::FloatSqrt            0      0.00%     85.74% # Type of FU issued
system.switch_cpus1.iq.FU_type_0::SimdAdd            0      0.00%     85.74% # Type of FU issued
system.switch_cpus1.iq.FU_type_0::SimdAddAcc            0      0.00%     85.74% # Type of FU issued
system.switch_cpus1.iq.FU_type_0::SimdAlu            0      0.00%     85.74% # Type of FU issued
system.switch_cpus1.iq.FU_type_0::SimdCmp            0      0.00%     85.74% # Type of FU issued
system.switch_cpus1.iq.FU_type_0::SimdCvt            0      0.00%     85.74% # Type of FU issued
system.switch_cpus1.iq.FU_type_0::SimdMisc            0      0.00%     85.74% # Type of FU issued
system.switch_cpus1.iq.FU_type_0::SimdMult            0      0.00%     85.74% # Type of FU issued
system.switch_cpus1.iq.FU_type_0::SimdMultAcc            0      0.00%     85.74% # Type of FU issued
system.switch_cpus1.iq.FU_type_0::SimdShift            0      0.00%     85.74% # Type of FU issued
system.switch_cpus1.iq.FU_type_0::SimdShiftAcc            0      0.00%     85.74% # Type of FU issued
system.switch_cpus1.iq.FU_type_0::SimdSqrt            0      0.00%     85.74% # Type of FU issued
system.switch_cpus1.iq.FU_type_0::SimdFloatAdd            0      0.00%     85.74% # Type of FU issued
system.switch_cpus1.iq.FU_type_0::SimdFloatAlu            0      0.00%     85.74% # Type of FU issued
system.switch_cpus1.iq.FU_type_0::SimdFloatCmp            0      0.00%     85.74% # Type of FU issued
system.switch_cpus1.iq.FU_type_0::SimdFloatCvt            0      0.00%     85.74% # Type of FU issued
system.switch_cpus1.iq.FU_type_0::SimdFloatDiv            0      0.00%     85.74% # Type of FU issued
system.switch_cpus1.iq.FU_type_0::SimdFloatMisc        17094      0.01%     85.76% # Type of FU issued
system.switch_cpus1.iq.FU_type_0::SimdFloatMult            0      0.00%     85.76% # Type of FU issued
system.switch_cpus1.iq.FU_type_0::SimdFloatMultAcc            0      0.00%     85.76% # Type of FU issued
system.switch_cpus1.iq.FU_type_0::SimdFloatSqrt            0      0.00%     85.76% # Type of FU issued
system.switch_cpus1.iq.FU_type_0::MemRead     12193810      8.97%     94.72% # Type of FU issued
system.switch_cpus1.iq.FU_type_0::MemWrite      7177649      5.28%    100.00% # Type of FU issued
system.switch_cpus1.iq.FU_type_0::IprAccess            0      0.00%    100.00% # Type of FU issued
system.switch_cpus1.iq.FU_type_0::InstPrefetch            0      0.00%    100.00% # Type of FU issued
system.switch_cpus1.iq.FU_type_0::total     136000915                       # Type of FU issued
system.switch_cpus1.iq.rate                  0.553342                       # Inst issue rate
system.switch_cpus1.iq.fu_busy_cnt             364101                       # FU busy when requested
system.switch_cpus1.iq.fu_busy_rate          0.002677                       # FU busy rate (busy events/executed inst)
system.switch_cpus1.iq.int_inst_queue_reads    501204543                       # Number of integer instruction queue reads
system.switch_cpus1.iq.int_inst_queue_writes    159345232                       # Number of integer instruction queue writes
system.switch_cpus1.iq.int_inst_queue_wakeup_accesses    133679987                       # Number of integer instruction queue wakeup accesses
system.switch_cpus1.iq.fp_inst_queue_reads            0                       # Number of floating instruction queue reads
system.switch_cpus1.iq.fp_inst_queue_writes            0                       # Number of floating instruction queue writes
system.switch_cpus1.iq.fp_inst_queue_wakeup_accesses            0                       # Number of floating instruction queue wakeup accesses
system.switch_cpus1.iq.int_alu_accesses     136365016                       # Number of integer alu accesses
system.switch_cpus1.iq.fp_alu_accesses              0                       # Number of floating point alu accesses
system.switch_cpus1.iew.lsq.thread0.forwLoads       277358                       # Number of loads that had data forwarded from stores
system.switch_cpus1.iew.lsq.thread0.invAddrLoads            0                       # Number of loads ignored due to an invalid address
system.switch_cpus1.iew.lsq.thread0.squashedLoads      2145750                       # Number of loads squashed
system.switch_cpus1.iew.lsq.thread0.ignoredResponses            5                       # Number of memory responses ignored because the instruction is squashed
system.switch_cpus1.iew.lsq.thread0.memOrderViolation          232                       # Number of memory ordering violations
system.switch_cpus1.iew.lsq.thread0.squashedStores        85807                       # Number of stores squashed
system.switch_cpus1.iew.lsq.thread0.invAddrSwpfs            0                       # Number of software prefetches ignored due to an invalid address
system.switch_cpus1.iew.lsq.thread0.blockedLoads            0                       # Number of blocked loads due to partial load-store forwarding
system.switch_cpus1.iew.lsq.thread0.rescheduledLoads            0                       # Number of loads that were rescheduled
system.switch_cpus1.iew.lsq.thread0.cacheBlocked            0                       # Number of times an access to memory failed due to the cache being blocked
system.switch_cpus1.iew.iewIdleCycles               0                       # Number of cycles IEW is idle
system.switch_cpus1.iew.iewSquashCycles       3510284                       # Number of cycles IEW is squashing
system.switch_cpus1.iew.iewBlockCycles         588090                       # Number of cycles IEW is blocking
system.switch_cpus1.iew.iewUnblockCycles        54113                       # Number of cycles IEW is unblocking
system.switch_cpus1.iew.iewDispatchedInsts    142581073                       # Number of instructions dispatched to IQ
system.switch_cpus1.iew.iewDispSquashedInsts        15942                       # Number of squashed instructions skipped by dispatch
system.switch_cpus1.iew.iewDispLoadInsts     13326509                       # Number of dispatched load instructions
system.switch_cpus1.iew.iewDispStoreInsts      7195882                       # Number of dispatched store instructions
system.switch_cpus1.iew.iewDispNonSpecInsts        17142                       # Number of dispatched non-speculative instructions
system.switch_cpus1.iew.iewIQFullEvents         44899                       # Number of times the IQ has become full, causing a stall
system.switch_cpus1.iew.iewLSQFullEvents            0                       # Number of times the LSQ has become full, causing a stall
system.switch_cpus1.iew.memOrderViolationEvents          232                       # Number of memory order violations
system.switch_cpus1.iew.predictedTakenIncorrect      1150890                       # Number of branches that were predicted taken incorrectly
system.switch_cpus1.iew.predictedNotTakenIncorrect      1041060                       # Number of branches that were predicted not taken incorrectly
system.switch_cpus1.iew.branchMispredicts      2191950                       # Number of branch mispredicts detected at execute
system.switch_cpus1.iew.iewExecutedInsts    134449995                       # Number of executed instructions
system.switch_cpus1.iew.iewExecLoadInsts     12101005                       # Number of load instructions executed
system.switch_cpus1.iew.iewExecSquashedInsts      1550919                       # Number of squashed instructions skipped in execute
system.switch_cpus1.iew.exec_swp                    0                       # number of swp insts executed
system.switch_cpus1.iew.exec_nop                    0                       # number of nop insts executed
system.switch_cpus1.iew.exec_refs            19278647                       # number of memory reference insts executed
system.switch_cpus1.iew.exec_branches        19052343                       # Number of branches executed
system.switch_cpus1.iew.exec_stores           7177642                       # Number of stores executed
system.switch_cpus1.iew.exec_rate            0.547032                       # Inst execution rate
system.switch_cpus1.iew.wb_sent             133680042                       # cumulative count of insts sent to commit
system.switch_cpus1.iew.wb_count            133679987                       # cumulative count of insts written-back
system.switch_cpus1.iew.wb_producers         78227325                       # num instructions producing a value
system.switch_cpus1.iew.wb_consumers        213008065                       # num instructions consuming a value
system.switch_cpus1.iew.wb_penalized                0                       # number of instrctions required to write to 'other' IQ
system.switch_cpus1.iew.wb_rate              0.543899                       # insts written-back per cycle
system.switch_cpus1.iew.wb_fanout            0.367251                       # average fanout of values written-back
system.switch_cpus1.iew.wb_penalized_rate            0                       # fraction of instructions written-back that wrote to 'other' IQ
system.switch_cpus1.commit.commitCommittedInsts    100043010                       # The number of committed instructions
system.switch_cpus1.commit.commitCommittedOps    123317460                       # The number of committed instructions
system.switch_cpus1.commit.commitSquashedInsts     19263878                       # The number of squashed insts skipped by commit
system.switch_cpus1.commit.commitNonSpecStalls        34192                       # The number of times commit has been forced to stall to communicate backwards
system.switch_cpus1.commit.branchMispredicts      2013063                       # The number of times a branch was mispredicted
system.switch_cpus1.commit.committed_per_cycle::samples    225264470                       # Number of insts commited each cycle
system.switch_cpus1.commit.committed_per_cycle::mean     0.547434                       # Number of insts commited each cycle
system.switch_cpus1.commit.committed_per_cycle::stdev     1.398553                       # Number of insts commited each cycle
system.switch_cpus1.commit.committed_per_cycle::underflows            0      0.00%      0.00% # Number of insts commited each cycle
system.switch_cpus1.commit.committed_per_cycle::0    174922251     77.65%     77.65% # Number of insts commited each cycle
system.switch_cpus1.commit.committed_per_cycle::1     24552029     10.90%     88.55% # Number of insts commited each cycle
system.switch_cpus1.commit.committed_per_cycle::2      9422759      4.18%     92.73% # Number of insts commited each cycle
system.switch_cpus1.commit.committed_per_cycle::3      4960608      2.20%     94.94% # Number of insts commited each cycle
system.switch_cpus1.commit.committed_per_cycle::4      4212029      1.87%     96.81% # Number of insts commited each cycle
system.switch_cpus1.commit.committed_per_cycle::5      2001617      0.89%     97.69% # Number of insts commited each cycle
system.switch_cpus1.commit.committed_per_cycle::6       941334      0.42%     98.11% # Number of insts commited each cycle
system.switch_cpus1.commit.committed_per_cycle::7      1480860      0.66%     98.77% # Number of insts commited each cycle
system.switch_cpus1.commit.committed_per_cycle::8      2770983      1.23%    100.00% # Number of insts commited each cycle
system.switch_cpus1.commit.committed_per_cycle::overflows            0      0.00%    100.00% # Number of insts commited each cycle
system.switch_cpus1.commit.committed_per_cycle::min_value            0                       # Number of insts commited each cycle
system.switch_cpus1.commit.committed_per_cycle::max_value            8                       # Number of insts commited each cycle
system.switch_cpus1.commit.committed_per_cycle::total    225264470                       # Number of insts commited each cycle
system.switch_cpus1.commit.committedInsts    100043010                       # Number of instructions committed
system.switch_cpus1.commit.committedOps     123317460                       # Number of ops (including micro ops) committed
system.switch_cpus1.commit.swp_count                0                       # Number of s/w prefetches committed
system.switch_cpus1.commit.refs              18290834                       # Number of memory references committed
system.switch_cpus1.commit.loads             11180759                       # Number of loads committed
system.switch_cpus1.commit.membars              17096                       # Number of memory barriers committed
system.switch_cpus1.commit.branches          17892089                       # Number of branches committed
system.switch_cpus1.commit.fp_insts                 0                       # Number of committed floating point instructions.
system.switch_cpus1.commit.int_insts        111017524                       # Number of committed integer instructions.
system.switch_cpus1.commit.function_calls      2550605                       # Number of function calls committed.
system.switch_cpus1.commit.bw_lim_events      2770983                       # number cycles where commit BW limit reached
system.switch_cpus1.commit.bw_limited               0                       # number of insts not committed due to BW limits
system.switch_cpus1.rob.rob_reads           365074825                       # The number of ROB reads
system.switch_cpus1.rob.rob_writes          288672985                       # The number of ROB writes
system.switch_cpus1.timesIdled                2823330                       # Number of times that the entire CPU went into an idle state and unscheduled itself
system.switch_cpus1.idleCycles               17006304                       # Total number of cycles that the CPU has spent unscheduled due to idling
system.switch_cpus1.committedInsts          100043010                       # Number of Instructions Simulated
system.switch_cpus1.committedOps            123317460                       # Number of Ops (including micro ops) Simulated
system.switch_cpus1.committedInsts_total    100043010                       # Number of Instructions Simulated
system.switch_cpus1.cpi                      2.456754                       # CPI: Cycles Per Instruction
system.switch_cpus1.cpi_total                2.456754                       # CPI: Total CPI of All Threads
system.switch_cpus1.ipc                      0.407041                       # IPC: Instructions Per Cycle
system.switch_cpus1.ipc_total                0.407041                       # IPC: Total IPC of All Threads
system.switch_cpus1.int_regfile_reads       604567667                       # number of integer regfile reads
system.switch_cpus1.int_regfile_writes      186733868                       # number of integer regfile writes
system.switch_cpus1.misc_regfile_reads      133072364                       # number of misc regfile reads
system.switch_cpus1.misc_regfile_writes         34192                       # number of misc regfile writes
[...]
system.cpu1.icache.ReadReq_miss_latency::total      2619297                       # number of ReadReq miss cycles
system.cpu1.icache.demand_miss_latency::switch_cpus1.inst      2619297                       # number of demand (read+write) miss cycles
system.cpu1.icache.demand_miss_latency::total      2619297                       # number of demand (read+write) miss cycles
system.cpu1.icache.overall_miss_latency::switch_cpus1.inst      2619297                       # number of overall miss cycles
system.cpu1.icache.overall_miss_latency::total      2619297                       # number of overall miss cycles
system.cpu1.icache.ReadReq_accesses::switch_cpus1.inst     11585379                       # number of ReadReq accesses(hits+misses)
system.cpu1.icache.ReadReq_accesses::total     11585379                       # number of ReadReq accesses(hits+misses)
system.cpu1.icache.demand_accesses::switch_cpus1.inst     11585379                       # number of demand (read+write) accesses
system.cpu1.icache.demand_accesses::total     11585379                       # number of demand (read+write) accesses
system.cpu1.icache.overall_accesses::switch_cpus1.inst     11585379                       # number of overall (read+write) accesses
system.cpu1.icache.overall_accesses::total     11585379                       # number of overall (read+write) accesses
system.cpu1.icache.ReadReq_miss_rate::switch_cpus1.inst     0.000001                       # miss rate for ReadReq accesses
system.cpu1.icache.ReadReq_miss_rate::total     0.000001                       # miss rate for ReadReq accesses
system.cpu1.icache.demand_miss_rate::switch_cpus1.inst     0.000001                       # miss rate for demand accesses
system.cpu1.icache.demand_miss_rate::total     0.000001                       # miss rate for demand accesses
system.cpu1.icache.overall_miss_rate::switch_cpus1.inst     0.000001                       # miss rate for overall accesses
system.cpu1.icache.overall_miss_rate::total     0.000001                       # miss rate for overall accesses
system.cpu1.icache.ReadReq_avg_miss_latency::switch_cpus1.inst 163706.062500                       # average ReadReq miss latency
system.cpu1.icache.ReadReq_avg_miss_latency::total 163706.062500                       # average ReadReq miss latency
system.cpu1.icache.demand_avg_miss_latency::switch_cpus1.inst 163706.062500                       # average overall miss latency
system.cpu1.icache.demand_avg_miss_latency::total 163706.062500                       # average overall miss latency
system.cpu1.icache.overall_avg_miss_latency::switch_cpus1.inst 163706.062500                       # average overall miss latency
system.cpu1.icache.overall_avg_miss_latency::total 163706.062500                       # average overall miss latency
system.cpu1.icache.blocked_cycles::no_mshrs            0                       # number of cycles access was blocked
system.cpu1.icache.blocked_cycles::no_targets            0                       # number of cycles access was blocked
system.cpu1.icache.blocked::no_mshrs                0                       # number of cycles access was blocked
system.cpu1.icache.blocked::no_targets              0                       # number of cycles access was blocked
system.cpu1.icache.avg_blocked_cycles::no_mshrs          nan                       # average number of cycles each access was blocked
system.cpu1.icache.avg_blocked_cycles::no_targets          nan                       # average number of cycles each access was blocked
system.cpu1.icache.fast_writes                      0                       # number of fast writes performed
system.cpu1.icache.cache_copies                     0                       # number of cache copies performed
system.cpu1.icache.ReadReq_mshr_hits::switch_cpus1.inst            1                       # number of ReadReq MSHR hits
system.cpu1.icache.ReadReq_mshr_hits::total            1                       # number of ReadReq MSHR hits
system.cpu1.icache.demand_mshr_hits::switch_cpus1.inst            1                       # number of demand (read+write) MSHR hits
system.cpu1.icache.demand_mshr_hits::total            1                       # number of demand (read+write) MSHR hits
system.cpu1.icache.overall_mshr_hits::switch_cpus1.inst            1                       # number of overall MSHR hits
system.cpu1.icache.overall_mshr_hits::total            1                       # number of overall MSHR hits
system.cpu1.icache.ReadReq_mshr_misses::switch_cpus1.inst           15                       # number of ReadReq MSHR misses
system.cpu1.icache.ReadReq_mshr_misses::total           15                       # number of ReadReq MSHR misses
system.cpu1.icache.demand_mshr_misses::switch_cpus1.inst           15                       # number of demand (read+write) MSHR misses
system.cpu1.icache.demand_mshr_misses::total           15                       # number of demand (read+write) MSHR misses
system.cpu1.icache.overall_mshr_misses::switch_cpus1.inst           15                       # number of overall MSHR misses
system.cpu1.icache.overall_mshr_misses::total           15                       # number of overall MSHR misses
system.cpu1.icache.ReadReq_mshr_miss_latency::switch_cpus1.inst      2349583                       # number of ReadReq MSHR miss cycles
system.cpu1.icache.ReadReq_mshr_miss_latency::total      2349583                       # number of ReadReq MSHR miss cycles
system.cpu1.icache.demand_mshr_miss_latency::switch_cpus1.inst      2349583                       # number of demand (read+write) MSHR miss cycles
system.cpu1.icache.demand_mshr_miss_latency::total      2349583                       # number of demand (read+write) MSHR miss cycles
system.cpu1.icache.overall_mshr_miss_latency::switch_cpus1.inst      2349583                       # number of overall MSHR miss cycles
system.cpu1.icache.overall_mshr_miss_latency::total      2349583                       # number of overall MSHR miss cycles
system.cpu1.icache.ReadReq_mshr_miss_rate::switch_cpus1.inst     0.000001                       # mshr miss rate for ReadReq accesses
system.cpu1.icache.ReadReq_mshr_miss_rate::total     0.000001                       # mshr miss rate for ReadReq accesses
system.cpu1.icache.demand_mshr_miss_rate::switch_cpus1.inst     0.000001                       # mshr miss rate for demand accesses
system.cpu1.icache.demand_mshr_miss_rate::total     0.000001                       # mshr miss rate for demand accesses
system.cpu1.icache.overall_mshr_miss_rate::switch_cpus1.inst     0.000001                       # mshr miss rate for overall accesses
system.cpu1.icache.overall_mshr_miss_rate::total     0.000001                       # mshr miss rate for overall accesses
system.cpu1.icache.ReadReq_avg_mshr_miss_latency::switch_cpus1.inst 156638.866667                       # average ReadReq mshr miss latency
system.cpu1.icache.ReadReq_avg_mshr_miss_latency::total 156638.866667                       # average ReadReq mshr miss latency
system.cpu1.icache.demand_avg_mshr_miss_latency::switch_cpus1.inst 156638.866667                       # average overall mshr miss latency
system.cpu1.icache.demand_avg_mshr_miss_latency::total 156638.866667                       # average overall mshr miss latency
system.cpu1.icache.overall_avg_mshr_miss_latency::switch_cpus1.inst 156638.866667                       # average overall mshr miss latency
system.cpu1.icache.overall_avg_mshr_miss_latency::total 156638.866667                       # average overall mshr miss latency
system.cpu1.icache.no_allocate_misses               0                       # Number of misses that were no-allocate
system.cpu1.dcache.replacements                 32873                       # number of replacements
system.cpu1.dcache.tagsinuse                      256                       # Cycle average of tags in use
system.cpu1.dcache.total_refs               162893254                       # Total number of references to valid blocks.
system.cpu1.dcache.sampled_refs                 33129                       # Sample count of references to valid blocks.
system.cpu1.dcache.avg_refs               4916.938453                       # Average number of references to valid blocks.
system.cpu1.dcache.warmup_cycle                     0                       # Cycle when the warmup percentage was hit.
system.cpu1.dcache.occ_blocks::switch_cpus1.data   231.194181                       # Average occupied blocks per requestor
system.cpu1.dcache.occ_blocks::cpu1.data    24.805819                       # Average occupied blocks per requestor
system.cpu1.dcache.occ_percent::switch_cpus1.data     0.903102                       # Average percentage of cache occupancy
system.cpu1.dcache.occ_percent::cpu1.data     0.096898                       # Average percentage of cache occupancy
system.cpu1.dcache.occ_percent::total               1                       # Average percentage of cache occupancy
system.cpu1.dcache.ReadReq_hits::switch_cpus1.data      9017333                       # number of ReadReq hits
system.cpu1.dcache.ReadReq_hits::total        9017333                       # number of ReadReq hits
system.cpu1.dcache.WriteReq_hits::switch_cpus1.data      7075885                       # number of WriteReq hits
system.cpu1.dcache.WriteReq_hits::total       7075885                       # number of WriteReq hits
system.cpu1.dcache.LoadLockedReq_hits::switch_cpus1.data        17116                       # number of LoadLockedReq hits
system.cpu1.dcache.LoadLockedReq_hits::total        17116                       # number of LoadLockedReq hits
system.cpu1.dcache.StoreCondReq_hits::switch_cpus1.data        17096                       # number of StoreCondReq hits
system.cpu1.dcache.StoreCondReq_hits::total        17096                       # number of StoreCondReq hits
system.cpu1.dcache.demand_hits::switch_cpus1.data     16093218                       # number of demand (read+write) hits
system.cpu1.dcache.demand_hits::total        16093218                       # number of demand (read+write) hits
system.cpu1.dcache.overall_hits::switch_cpus1.data     16093218                       # number of overall hits
system.cpu1.dcache.overall_hits::total       16093218                       # number of overall hits
system.cpu1.dcache.ReadReq_misses::switch_cpus1.data        84455                       # number of ReadReq misses
system.cpu1.dcache.ReadReq_misses::total        84455                       # number of ReadReq misses
system.cpu1.dcache.demand_misses::switch_cpus1.data        84455                       # number of demand (read+write) misses
system.cpu1.dcache.demand_misses::total         84455                       # number of demand (read+write) misses
system.cpu1.dcache.overall_misses::switch_cpus1.data        84455                       # number of overall misses
system.cpu1.dcache.overall_misses::total        84455                       # number of overall misses
system.cpu1.dcache.ReadReq_miss_latency::switch_cpus1.data  15682836730                       # number of ReadReq miss cycles
system.cpu1.dcache.ReadReq_miss_latency::total  15682836730                       # number of ReadReq miss cycles
system.cpu1.dcache.demand_miss_latency::switch_cpus1.data  15682836730                       # number of demand (read+write) miss cycles
system.cpu1.dcache.demand_miss_latency::total  15682836730                       # number of demand (read+write) miss cycles
system.cpu1.dcache.overall_miss_latency::switch_cpus1.data  15682836730                       # number of overall miss cycles
system.cpu1.dcache.overall_miss_latency::total  15682836730                       # number of overall miss cycles
system.cpu1.dcache.ReadReq_accesses::switch_cpus1.data      9101788                       # number of ReadReq accesses(hits+misses)
system.cpu1.dcache.ReadReq_accesses::total      9101788                       # number of ReadReq accesses(hits+misses)
system.cpu1.dcache.WriteReq_accesses::switch_cpus1.data      7075885                       # number of WriteReq accesses(hits+misses)
system.cpu1.dcache.WriteReq_accesses::total      7075885                       # number of WriteReq accesses(hits+misses)
system.cpu1.dcache.LoadLockedReq_accesses::switch_cpus1.data        17116                       # number of LoadLockedReq accesses(hits+misses)
system.cpu1.dcache.LoadLockedReq_accesses::total        17116                       # number of LoadLockedReq accesses(hits+misses)
system.cpu1.dcache.StoreCondReq_accesses::switch_cpus1.data        17096                       # number of StoreCondReq accesses(hits+misses)
system.cpu1.dcache.StoreCondReq_accesses::total        17096                       # number of StoreCondReq accesses(hits+misses)
system.cpu1.dcache.demand_accesses::switch_cpus1.data     16177673                       # number of demand (read+write) accesses
system.cpu1.dcache.demand_accesses::total     16177673                       # number of demand (read+write) accesses
system.cpu1.dcache.overall_accesses::switch_cpus1.data     16177673                       # number of overall (read+write) accesses
system.cpu1.dcache.overall_accesses::total     16177673                       # number of overall (read+write) accesses
system.cpu1.dcache.ReadReq_miss_rate::switch_cpus1.data     0.009279                       # miss rate for ReadReq accesses
system.cpu1.dcache.ReadReq_miss_rate::total     0.009279                       # miss rate for ReadReq accesses
system.cpu1.dcache.demand_miss_rate::switch_cpus1.data     0.005220                       # miss rate for demand accesses
system.cpu1.dcache.demand_miss_rate::total     0.005220                       # miss rate for demand accesses
system.cpu1.dcache.overall_miss_rate::switch_cpus1.data     0.005220                       # miss rate for overall accesses
system.cpu1.dcache.overall_miss_rate::total     0.005220                       # miss rate for overall accesses
system.cpu1.dcache.ReadReq_avg_miss_latency::switch_cpus1.data 185694.591558                       # average ReadReq miss latency
system.cpu1.dcache.ReadReq_avg_miss_latency::total 185694.591558                       # average ReadReq miss latency
system.cpu1.dcache.demand_avg_miss_latency::switch_cpus1.data 185694.591558                       # average overall miss latency
system.cpu1.dcache.demand_avg_miss_latency::total 185694.591558                       # average overall miss latency
system.cpu1.dcache.overall_avg_miss_latency::switch_cpus1.data 185694.591558                       # average overall miss latency
system.cpu1.dcache.overall_avg_miss_latency::total 185694.591558                       # average overall miss latency
system.cpu1.dcache.blocked_cycles::no_mshrs            0                       # number of cycles access was blocked
system.cpu1.dcache.blocked_cycles::no_targets            0                       # number of cycles access was blocked
system.cpu1.dcache.blocked::no_mshrs                0                       # number of cycles access was blocked
system.cpu1.dcache.blocked::no_targets              0                       # number of cycles access was blocked
system.cpu1.dcache.avg_blocked_cycles::no_mshrs          nan                       # average number of cycles each access was blocked
system.cpu1.dcache.avg_blocked_cycles::no_targets          nan                       # average number of cycles each access was blocked
system.cpu1.dcache.fast_writes                      0                       # number of fast writes performed
system.cpu1.dcache.cache_copies                     0                       # number of cache copies performed
system.cpu1.dcache.writebacks::writebacks         7099                       # number of writebacks
system.cpu1.dcache.writebacks::total             7099                       # number of writebacks
system.cpu1.dcache.ReadReq_mshr_hits::switch_cpus1.data        51582                       # number of ReadReq MSHR hits
system.cpu1.dcache.ReadReq_mshr_hits::total        51582                       # number of ReadReq MSHR hits
system.cpu1.dcache.demand_mshr_hits::switch_cpus1.data        51582                       # number of demand (read+write) MSHR hits
system.cpu1.dcache.demand_mshr_hits::total        51582                       # number of demand (read+write) MSHR hits
system.cpu1.dcache.overall_mshr_hits::switch_cpus1.data        51582                       # number of overall MSHR hits
system.cpu1.dcache.overall_mshr_hits::total        51582                       # number of overall MSHR hits
system.cpu1.dcache.ReadReq_mshr_misses::switch_cpus1.data        32873                       # number of ReadReq MSHR misses
system.cpu1.dcache.ReadReq_mshr_misses::total        32873                       # number of ReadReq MSHR misses
system.cpu1.dcache.demand_mshr_misses::switch_cpus1.data        32873                       # number of demand (read+write) MSHR misses
system.cpu1.dcache.demand_mshr_misses::total        32873                       # number of demand (read+write) MSHR misses
system.cpu1.dcache.overall_mshr_misses::switch_cpus1.data        32873                       # number of overall MSHR misses
system.cpu1.dcache.overall_mshr_misses::total        32873                       # number of overall MSHR misses
system.cpu1.dcache.ReadReq_mshr_miss_latency::switch_cpus1.data   5732500200                       # number of ReadReq MSHR miss cycles
system.cpu1.dcache.ReadReq_mshr_miss_latency::total   5732500200                       # number of ReadReq MSHR miss cycles
system.cpu1.dcache.demand_mshr_miss_latency::switch_cpus1.data   5732500200                       # number of demand (read+write) MSHR miss cycles
system.cpu1.dcache.demand_mshr_miss_latency::total   5732500200                       # number of demand (read+write) MSHR miss cycles
system.cpu1.dcache.overall_mshr_miss_latency::switch_cpus1.data   5732500200                       # number of overall MSHR miss cycles
system.cpu1.dcache.overall_mshr_miss_latency::total   5732500200                       # number of overall MSHR miss cycles
system.cpu1.dcache.ReadReq_mshr_miss_rate::switch_cpus1.data     0.003612                       # mshr miss rate for ReadReq accesses
system.cpu1.dcache.ReadReq_mshr_miss_rate::total     0.003612                       # mshr miss rate for ReadReq accesses
system.cpu1.dcache.demand_mshr_miss_rate::switch_cpus1.data     0.002032                       # mshr miss rate for demand accesses
system.cpu1.dcache.demand_mshr_miss_rate::total     0.002032                       # mshr miss rate for demand accesses
system.cpu1.dcache.overall_mshr_miss_rate::switch_cpus1.data     0.002032                       # mshr miss rate for overall accesses
system.cpu1.dcache.overall_mshr_miss_rate::total     0.002032                       # mshr miss rate for overall accesses
system.cpu1.dcache.ReadReq_avg_mshr_miss_latency::switch_cpus1.data 174383.238524                       # average ReadReq mshr miss latency
system.cpu1.dcache.ReadReq_avg_mshr_miss_latency::total 174383.238524                       # average ReadReq mshr miss latency
system.cpu1.dcache.demand_avg_mshr_miss_latency::switch_cpus1.data 174383.238524                       # average overall mshr miss latency
system.cpu1.dcache.demand_avg_mshr_miss_latency::total 174383.238524                       # average overall mshr miss latency
system.cpu1.dcache.overall_avg_mshr_miss_latency::switch_cpus1.data 174383.238524                       # average overall mshr miss latency
system.cpu1.dcache.overall_avg_mshr_miss_latency::total 174383.238524                       # average overall mshr miss latency
system.cpu1.dcache.no_allocate_misses               0                       # Number of misses that were no-allocate

---------- End Simulation Statistics   ----------
