
---------- Begin Simulation Statistics ----------
sim_seconds                                  0.035732                       # Number of seconds simulated
sim_ticks                                 35732022768                       # Number of ticks simulated
final_tick                               565296402705                       # Number of ticks from beginning of simulation (restored from checkpoints and never reset)
sim_freq                                 1000000000000                       # Frequency of simulated ticks
host_inst_rate                                 258219                       # Simulator instruction rate (inst/s)
host_op_rate                                   325893                       # Simulator op (including micro ops) rate (op/s)
host_tick_rate                                2089111                       # Simulator tick rate (ticks/s)
host_mem_usage                               16916176                       # Number of bytes of host memory used
host_seconds                                 17103.94                       # Real time elapsed on the host
sim_insts                                  4416565778                       # Number of instructions simulated
sim_ops                                    5574058038                       # Number of ops (including micro ops) simulated
system.physmem.bytes_read::switch_cpus0.inst         1408                       # Number of bytes read from this memory
system.physmem.bytes_read::switch_cpus0.data      2648832                       # Number of bytes read from this memory
system.physmem.bytes_read::switch_cpus1.inst         1664                       # Number of bytes read from this memory
system.physmem.bytes_read::switch_cpus1.data      2852096                       # Number of bytes read from this memory
system.physmem.bytes_read::switch_cpus2.inst         1792                       # Number of bytes read from this memory
system.physmem.bytes_read::switch_cpus2.data      1274112                       # Number of bytes read from this memory
system.physmem.bytes_read::switch_cpus3.inst         2176                       # Number of bytes read from this memory
system.physmem.bytes_read::switch_cpus3.data       973056                       # Number of bytes read from this memory
system.physmem.bytes_read::total              7755136                       # Number of bytes read from this memory
system.physmem.bytes_inst_read::switch_cpus0.inst         1408                       # Number of instructions bytes read from this memory
system.physmem.bytes_inst_read::switch_cpus1.inst         1664                       # Number of instructions bytes read from this memory
system.physmem.bytes_inst_read::switch_cpus2.inst         1792                       # Number of instructions bytes read from this memory
system.physmem.bytes_inst_read::switch_cpus3.inst         2176                       # Number of instructions bytes read from this memory
system.physmem.bytes_inst_read::total            7040                       # Number of instructions bytes read from this memory
system.physmem.bytes_written::writebacks      2294528                       # Number of bytes written to this memory
system.physmem.bytes_written::total           2294528                       # Number of bytes written to this memory
system.physmem.num_reads::switch_cpus0.inst           11                       # Number of read requests responded to by this memory
system.physmem.num_reads::switch_cpus0.data        20694                       # Number of read requests responded to by this memory
system.physmem.num_reads::switch_cpus1.inst           13                       # Number of read requests responded to by this memory
system.physmem.num_reads::switch_cpus1.data        22282                       # Number of read requests responded to by this memory
system.physmem.num_reads::switch_cpus2.inst           14                       # Number of read requests responded to by this memory
system.physmem.num_reads::switch_cpus2.data         9954                       # Number of read requests responded to by this memory
system.physmem.num_reads::switch_cpus3.inst           17                       # Number of read requests responded to by this memory
system.physmem.num_reads::switch_cpus3.data         7602                       # Number of read requests responded to by this memory
system.physmem.num_reads::total                 60587                       # Number of read requests responded to by this memory
system.physmem.num_writes::writebacks           17926                       # Number of write requests responded to by this memory
system.physmem.num_writes::functional               0                       # Number of write requests responded to by this memory
system.physmem.num_writes::interrupt                0                       # Number of write requests responded to by this memory
system.physmem.num_writes::switch_cpus0.dtb.walker            0                       # Number of write requests responded to by this memory
system.physmem.num_writes::switch_cpus0.itb.walker            0                       # Number of write requests responded to by this memory
system.physmem.num_writes::switch_cpus0.inst            0                       # Number of write requests responded to by this memory
system.physmem.num_writes::switch_cpus0.data            0                       # Number of write requests responded to by this memory
system.physmem.num_writes::switch_cpus1.dtb.walker            0                       # Number of write requests responded to by this memory
system.physmem.num_writes::switch_cpus1.itb.walker            0                       # Number of write requests responded to by this memory
system.physmem.num_writes::switch_cpus1.inst            0                       # Number of write requests responded to by this memory
system.physmem.num_writes::switch_cpus1.data            0                       # Number of write requests responded to by this memory
system.physmem.num_writes::switch_cpus2.dtb.walker            0                       # Number of write requests responded to by this memory
system.physmem.num_writes::switch_cpus2.itb.walker            0                       # Number of write requests responded to by this memory
system.physmem.num_writes::switch_cpus2.inst            0                       # Number of write requests responded to by this memory
system.physmem.num_writes::switch_cpus2.data            0                       # Number of write requests responded to by this memory
system.physmem.num_writes::switch_cpus3.dtb.walker            0                       # Number of write requests responded to by this memory
system.physmem.num_writes::switch_cpus3.itb.walker            0                       # Number of write requests responded to by this memory
system.physmem.num_writes::switch_cpus3.inst            0                       # Number of write requests responded to by this memory
system.physmem.num_writes::switch_cpus3.data            0                       # Number of write requests responded to by this memory
system.physmem.num_writes::cpu0.dtb.walker            0                       # Number of write requests responded to by this memory
system.physmem.num_writes::cpu0.itb.walker            0                       # Number of write requests responded to by this memory
system.physmem.num_writes::cpu0.inst                0                       # Number of write requests responded to by this memory
system.physmem.num_writes::cpu0.data                0                       # Number of write requests responded to by this memory
system.physmem.num_writes::cpu1.dtb.walker            0                       # Number of write requests responded to by this memory
system.physmem.num_writes::cpu1.itb.walker            0                       # Number of write requests responded to by this memory
system.physmem.num_writes::cpu1.inst                0                       # Number of write requests responded to by this memory
system.physmem.num_writes::cpu1.data                0                       # Number of write requests responded to by this memory
system.physmem.num_writes::cpu2.dtb.walker            0                       # Number of write requests responded to by this memory
system.physmem.num_writes::cpu2.itb.walker            0                       # Number of write requests responded to by this memory
system.physmem.num_writes::cpu2.inst                0                       # Number of write requests responded to by this memory
system.physmem.num_writes::cpu2.data                0                       # Number of write requests responded to by this memory
system.physmem.num_writes::cpu3.dtb.walker            0                       # Number of write requests responded to by this memory
system.physmem.num_writes::cpu3.itb.walker            0                       # Number of write requests responded to by this memory
system.physmem.num_writes::cpu3.inst                0                       # Number of write requests responded to by this memory
system.physmem.num_writes::cpu3.data                0                       # Number of write requests responded to by this memory
system.physmem.num_writes::total                17926                       # Number of write requests responded to by this memory
system.physmem.bw_read::switch_cpus0.inst        39404                       # Total read bandwidth from this memory (bytes/s)
system.physmem.bw_read::switch_cpus0.data     74130480                       # Total read bandwidth from this memory (bytes/s)
system.physmem.bw_read::switch_cpus1.inst        46569                       # Total read bandwidth from this memory (bytes/s)
system.physmem.bw_read::switch_cpus1.data     79819047                       # Total read bandwidth from this memory (bytes/s)
system.physmem.bw_read::switch_cpus2.inst        50151                       # Total read bandwidth from this memory (bytes/s)
system.physmem.bw_read::switch_cpus2.data     35657427                       # Total read bandwidth from this memory (bytes/s)
system.physmem.bw_read::switch_cpus3.inst        60898                       # Total read bandwidth from this memory (bytes/s)
system.physmem.bw_read::switch_cpus3.data     27232044                       # Total read bandwidth from this memory (bytes/s)
system.physmem.bw_read::total               217036020                       # Total read bandwidth from this memory (bytes/s)
system.physmem.bw_inst_read::switch_cpus0.inst        39404                       # Instruction read bandwidth from this memory (bytes/s)
system.physmem.bw_inst_read::switch_cpus1.inst        46569                       # Instruction read bandwidth from this memory (bytes/s)
system.physmem.bw_inst_read::switch_cpus2.inst        50151                       # Instruction read bandwidth from this memory (bytes/s)
system.physmem.bw_inst_read::switch_cpus3.inst        60898                       # Instruction read bandwidth from this memory (bytes/s)
system.physmem.bw_inst_read::total             197022                       # Instruction read bandwidth from this memory (bytes/s)
system.physmem.bw_write::writebacks          64214892                       # Write bandwidth from this memory (bytes/s)
system.physmem.bw_write::total               64214892                       # Write bandwidth from this memory (bytes/s)
system.physmem.bw_total::writebacks          64214892                       # Total bandwidth to/from this memory (bytes/s)
system.physmem.bw_total::switch_cpus0.inst        39404                       # Total bandwidth to/from this memory (bytes/s)
system.physmem.bw_total::switch_cpus0.data     74130480                       # Total bandwidth to/from this memory (bytes/s)
system.physmem.bw_total::switch_cpus1.inst        46569                       # Total bandwidth to/from this memory (bytes/s)
system.physmem.bw_total::switch_cpus1.data     79819047                       # Total bandwidth to/from this memory (bytes/s)
system.physmem.bw_total::switch_cpus2.inst        50151                       # Total bandwidth to/from this memory (bytes/s)
system.physmem.bw_total::switch_cpus2.data     35657427                       # Total bandwidth to/from this memory (bytes/s)
system.physmem.bw_total::switch_cpus3.inst        60898                       # Total bandwidth to/from this memory (bytes/s)
system.physmem.bw_total::switch_cpus3.data     27232044                       # Total bandwidth to/from this memory (bytes/s)
system.physmem.bw_total::total              281250912                       # Total bandwidth to/from this memory (bytes/s)
system.switch_cpus0.dtb.inst_hits                   0                       # ITB inst hits
system.switch_cpus0.dtb.inst_misses                 0                       # ITB inst misses
system.switch_cpus0.dtb.read_hits                   0                       # DTB read hits
system.switch_cpus0.dtb.read_misses                 0                       # DTB read misses
system.switch_cpus0.dtb.write_hits                  0                       # DTB write hits
system.switch_cpus0.dtb.write_misses                0                       # DTB write misses
system.switch_cpus0.dtb.flush_tlb                   0                       # Number of times complete TLB was flushed
system.switch_cpus0.dtb.flush_tlb_mva               0                       # Number of times TLB was flushed by MVA
system.switch_cpus0.dtb.flush_tlb_mva_asid            0                       # Number of times TLB was flushed by MVA & ASID
system.switch_cpus0.dtb.flush_tlb_asid              0                       # Number of times TLB was flushed by ASID
system.switch_cpus0.dtb.flush_entries               0                       # Number of entries that have been flushed from TLB
system.switch_cpus0.dtb.align_faults                0                       # Number of TLB faults due to alignment restrictions
system.switch_cpus0.dtb.prefetch_faults             0                       # Number of TLB faults due to prefetch
system.switch_cpus0.dtb.domain_faults               0                       # Number of TLB faults due to domain restrictions
system.switch_cpus0.dtb.perms_faults                0                       # Number of TLB faults due to permissions restrictions
system.switch_cpus0.dtb.read_accesses               0                       # DTB read accesses
system.switch_cpus0.dtb.write_accesses              0                       # DTB write accesses
system.switch_cpus0.dtb.inst_accesses               0                       # ITB inst accesses
system.switch_cpus0.dtb.hits                        0                       # DTB hits
system.switch_cpus0.dtb.misses                      0                       # DTB misses
system.switch_cpus0.dtb.accesses                    0                       # DTB accesses
system.switch_cpus0.itb.inst_hits                   0                       # ITB inst hits
system.switch_cpus0.itb.inst_misses                 0                       # ITB inst misses
system.switch_cpus0.itb.read_hits                   0                       # DTB read hits
system.switch_cpus0.itb.read_misses                 0                       # DTB read misses
system.switch_cpus0.itb.write_hits                  0                       # DTB write hits
system.switch_cpus0.itb.write_misses                0                       # DTB write misses
system.switch_cpus0.itb.flush_tlb                   0                       # Number of times complete TLB was flushed
system.switch_cpus0.itb.flush_tlb_mva               0                       # Number of times TLB was flushed by MVA
system.switch_cpus0.itb.flush_tlb_mva_asid            0                       # Number of times TLB was flushed by MVA & ASID
system.switch_cpus0.itb.flush_tlb_asid              0                       # Number of times TLB was flushed by ASID
system.switch_cpus0.itb.flush_entries               0                       # Number of entries that have been flushed from TLB
system.switch_cpus0.itb.align_faults                0                       # Number of TLB faults due to alignment restrictions
system.switch_cpus0.itb.prefetch_faults             0                       # Number of TLB faults due to prefetch
system.switch_cpus0.itb.domain_faults               0                       # Number of TLB faults due to domain restrictions
system.switch_cpus0.itb.perms_faults                0                       # Number of TLB faults due to permissions restrictions
system.switch_cpus0.itb.read_accesses               0                       # DTB read accesses
system.switch_cpus0.itb.write_accesses              0                       # DTB write accesses
system.switch_cpus0.itb.inst_accesses               0                       # ITB inst accesses
system.switch_cpus0.itb.hits                        0                       # DTB hits
system.switch_cpus0.itb.misses                      0                       # DTB misses
system.switch_cpus0.itb.accesses                    0                       # DTB accesses
system.cpu0.workload.num_syscalls                   0                       # Number of system calls
system.switch_cpus0.numCycles                85688305                       # number of cpu cycles simulated
system.switch_cpus0.numWorkItemsStarted             0                       # number of work items this cpu started
system.switch_cpus0.numWorkItemsCompleted            0                       # number of work items this cpu completed
system.switch_cpus0.BPredUnit.lookups        30998178                       # Number of BP lookups
system.switch_cpus0.BPredUnit.condPredicted     25422924                       # Number of conditional branches predicted
system.switch_cpus0.BPredUnit.condIncorrect      2017552                       # Number of conditional branches incorrect
system.switch_cpus0.BPredUnit.BTBLookups     13083372                       # Number of BTB lookups
system.switch_cpus0.BPredUnit.BTBHits        12088326                       # Number of BTB hits
system.switch_cpus0.BPredUnit.BTBCorrect            0                       # Number of correct BTB predictions (this stat may not work properly.
system.switch_cpus0.BPredUnit.usedRAS         3158194                       # Number of times the RAS was used to get a target.
system.switch_cpus0.BPredUnit.RASInCorrect        87198                       # Number of incorrect RAS predictions.
system.switch_cpus0.fetch.icacheStallCycles     32034412                       # Number of cycles fetch is stalled on an Icache miss
system.switch_cpus0.fetch.Insts             170283070                       # Number of instructions fetch has processed
system.switch_cpus0.fetch.Branches           30998178                       # Number of branches that fetch encountered
system.switch_cpus0.fetch.predictedBranches     15246520                       # Number of branches that fetch has predicted taken
system.switch_cpus0.fetch.Cycles             36593414                       # Number of cycles fetch has run and was not squashing or blocked
system.switch_cpus0.fetch.SquashCycles       10807693                       # Number of cycles fetch has spent squashing
system.switch_cpus0.fetch.BlockedCycles       6849497                       # Number of cycles fetch has spent blocked
system.switch_cpus0.fetch.PendingTrapStallCycles            1                       # Number of stall cycles due to pending traps
system.switch_cpus0.fetch.CacheLines         15672433                       # Number of cache lines fetched
system.switch_cpus0.fetch.IcacheSquashes       809395                       # Number of outstanding Icache misses that were squashed
system.switch_cpus0.fetch.rateDist::samples     84234809                       # Number of instructions fetched each cycle (Total)
system.switch_cpus0.fetch.rateDist::mean     2.484299                       # Number of instructions fetched each cycle (Total)
system.switch_cpus0.fetch.rateDist::stdev     3.332954                       # Number of instructions fetched each cycle (Total)
system.switch_cpus0.fetch.rateDist::underflows            0      0.00%      0.00% # Number of instructions fetched each cycle (Total)
system.switch_cpus0.fetch.rateDist::0        47641395     56.56%     56.56% # Number of instructions fetched each cycle (Total)
system.switch_cpus0.fetch.rateDist::1         3659596      4.34%     60.90% # Number of instructions fetched each cycle (Total)
system.switch_cpus0.fetch.rateDist::2         3194628      3.79%     64.69% # Number of instructions fetched each cycle (Total)
system.switch_cpus0.fetch.rateDist::3         3440660      4.08%     68.78% # Number of instructions fetched each cycle (Total)
system.switch_cpus0.fetch.rateDist::4         3001739      3.56%     72.34% # Number of instructions fetched each cycle (Total)
system.switch_cpus0.fetch.rateDist::5         1573425      1.87%     74.21% # Number of instructions fetched each cycle (Total)
system.switch_cpus0.fetch.rateDist::6         1026415      1.22%     75.43% # Number of instructions fetched each cycle (Total)
system.switch_cpus0.fetch.rateDist::7         2714557      3.22%     78.65% # Number of instructions fetched each cycle (Total)
system.switch_cpus0.fetch.rateDist::8        17982394     21.35%    100.00% # Number of instructions fetched each cycle (Total)
system.switch_cpus0.fetch.rateDist::overflows            0      0.00%    100.00% # Number of instructions fetched each cycle (Total)
system.switch_cpus0.fetch.rateDist::min_value            0                       # Number of instructions fetched each cycle (Total)
system.switch_cpus0.fetch.rateDist::max_value            8                       # Number of instructions fetched each cycle (Total)
system.switch_cpus0.fetch.rateDist::total     84234809                       # Number of instructions fetched each cycle (Total)
system.switch_cpus0.fetch.branchRate         0.361755                       # Number of branch fetches per cycle
system.switch_cpus0.fetch.rate               1.987238                       # Number of inst fetches per cycle
system.switch_cpus0.decode.IdleCycles        33693209                       # Number of cycles decode is idle
system.switch_cpus0.decode.BlockedCycles      6433489                       # Number of cycles decode is blocked
system.switch_cpus0.decode.RunCycles         34814892                       # Number of cycles decode is running
system.switch_cpus0.decode.UnblockCycles       542170                       # Number of cycles decode is unblocking
system.switch_cpus0.decode.SquashCycles       8751040                       # Number of cycles decode is squashing
system.switch_cpus0.decode.BranchResolved      5080637                       # Number of times decode resolved a branch
system.switch_cpus0.decode.BranchMispred         6469                       # Number of times decode detected a branch misprediction
system.switch_cpus0.decode.DecodedInsts     201967109                       # Number of instructions handled by decode
system.switch_cpus0.decode.SquashedInsts        50973                       # Number of squashed instructions handled by decode
system.switch_cpus0.rename.SquashCycles       8751040                       # Number of cycles rename is squashing
system.switch_cpus0.rename.IdleCycles        35367076                       # Number of cycles rename is idle
system.switch_cpus0.rename.BlockCycles        2852609                       # Number of cycles rename is blocking
system.switch_cpus0.rename.serializeStallCycles       896680                       # count of cycles rename stalled for serializing inst
system.switch_cpus0.rename.RunCycles         33654328                       # Number of cycles rename is running
system.switch_cpus0.rename.UnblockCycles      2713068                       # Number of cycles rename is unblocking
system.switch_cpus0.rename.RenamedInsts     195109086                       # Number of instructions processed by rename
system.switch_cpus0.rename.ROBFullEvents        11577                       # Number of times rename has blocked due to ROB full
system.switch_cpus0.rename.IQFullEvents       1692501                       # Number of times rename has blocked due to IQ full
system.switch_cpus0.rename.LSQFullEvents       748430                       # Number of times rename has blocked due to LSQ full
system.switch_cpus0.rename.FullRegisterEvents          104                       # Number of times there has been no free registers
system.switch_cpus0.rename.RenamedOperands    271026938                       # Number of destination operands rename has renamed
system.switch_cpus0.rename.RenameLookups    909796601                       # Number of register rename lookups that rename has made
system.switch_cpus0.rename.int_rename_lookups    909796601                       # Number of integer rename lookups
system.switch_cpus0.rename.CommittedMaps    168259218                       # Number of HB maps that are committed
system.switch_cpus0.rename.UndoneMaps       102767674                       # Number of HB maps that are undone due to squashing
system.switch_cpus0.rename.serializingInsts        34304                       # count of serializing insts renamed
system.switch_cpus0.rename.tempSerializingInsts        18282                       # count of temporary serializing insts renamed
system.switch_cpus0.rename.skidInsts          7218852                       # count of insts added to the skid buffer
system.switch_cpus0.memDep0.insertedLoads     19233982                       # Number of loads inserted to the mem dependence unit.
system.switch_cpus0.memDep0.insertedStores     10026262                       # Number of stores inserted to the mem dependence unit.
system.switch_cpus0.memDep0.conflictingLoads       244123                       # Number of conflicting loads.
system.switch_cpus0.memDep0.conflictingStores      3179942                       # Number of conflicting stores.
system.switch_cpus0.iq.iqInstsAdded         183926661                       # Number of instructions added to the IQ (excludes non-spec)
system.switch_cpus0.iq.iqNonSpecInstsAdded        34287                       # Number of non-speculative instructions added to the IQ
system.switch_cpus0.iq.iqInstsIssued        147808433                       # Number of instructions issued
system.switch_cpus0.iq.iqSquashedInstsIssued       281846                       # Number of squashed instructions issued
system.switch_cpus0.iq.iqSquashedInstsExamined     61025512                       # Number of squashed instructions iterated over during squash; mainly for profiling
system.switch_cpus0.iq.iqSquashedOperandsExamined    186400596                       # Number of squashed operands that are examined and possibly removed from graph
system.switch_cpus0.iq.iqSquashedNonSpecRemoved         2243                       # Number of squashed non-spec instructions that were removed
system.switch_cpus0.iq.issued_per_cycle::samples     84234809                       # Number of insts issued each cycle
system.switch_cpus0.iq.issued_per_cycle::mean     1.754719                       # Number of insts issued each cycle
system.switch_cpus0.iq.issued_per_cycle::stdev     1.909418                       # Number of insts issued each cycle
system.switch_cpus0.iq.issued_per_cycle::underflows            0      0.00%      0.00% # Number of insts issued each cycle
system.switch_cpus0.iq.issued_per_cycle::0     30028181     35.65%     35.65% # Number of insts issued each cycle
system.switch_cpus0.iq.issued_per_cycle::1     17845611     21.19%     56.83% # Number of insts issued each cycle
system.switch_cpus0.iq.issued_per_cycle::2     11962867     14.20%     71.04% # Number of insts issued each cycle
system.switch_cpus0.iq.issued_per_cycle::3      7632154      9.06%     80.10% # Number of insts issued each cycle
system.switch_cpus0.iq.issued_per_cycle::4      7544611      8.96%     89.05% # Number of insts issued each cycle
system.switch_cpus0.iq.issued_per_cycle::5      4424392      5.25%     94.31% # Number of insts issued each cycle
system.switch_cpus0.iq.issued_per_cycle::6      3395144      4.03%     98.34% # Number of insts issued each cycle
system.switch_cpus0.iq.issued_per_cycle::7       745434      0.88%     99.22% # Number of insts issued each cycle
system.switch_cpus0.iq.issued_per_cycle::8       656415      0.78%    100.00% # Number of insts issued each cycle
system.switch_cpus0.iq.issued_per_cycle::overflows            0      0.00%    100.00% # Number of insts issued each cycle
system.switch_cpus0.iq.issued_per_cycle::min_value            0                       # Number of insts issued each cycle
system.switch_cpus0.iq.issued_per_cycle::max_value            8                       # Number of insts issued each cycle
system.switch_cpus0.iq.issued_per_cycle::total     84234809                       # Number of insts issued each cycle
system.switch_cpus0.iq.fu_full::No_OpClass            0      0.00%      0.00% # attempts to use FU when none available
system.switch_cpus0.iq.fu_full::IntAlu        1084050     70.01%     70.01% # attempts to use FU when none available
system.switch_cpus0.iq.fu_full::IntMult            39      0.00%     70.01% # attempts to use FU when none available
system.switch_cpus0.iq.fu_full::IntDiv              0      0.00%     70.01% # attempts to use FU when none available
system.switch_cpus0.iq.fu_full::FloatAdd            0      0.00%     70.01% # attempts to use FU when none available
system.switch_cpus0.iq.fu_full::FloatCmp            0      0.00%     70.01% # attempts to use FU when none available
system.switch_cpus0.iq.fu_full::FloatCvt            0      0.00%     70.01% # attempts to use FU when none available
system.switch_cpus0.iq.fu_full::FloatMult            0      0.00%     70.01% # attempts to use FU when none available
system.switch_cpus0.iq.fu_full::FloatDiv            0      0.00%     70.01% # attempts to use FU when none available
system.switch_cpus0.iq.fu_full::FloatSqrt            0      0.00%     70.01% # attempts to use FU when none available
system.switch_cpus0.iq.fu_full::SimdAdd             0      0.00%     70.01% # attempts to use FU when none available
system.switch_cpus0.iq.fu_full::SimdAddAcc            0      0.00%     70.01% # attempts to use FU when none available
system.switch_cpus0.iq.fu_full::SimdAlu             0      0.00%     70.01% # attempts to use FU when none available
system.switch_cpus0.iq.fu_full::SimdCmp             0      0.00%     70.01% # attempts to use FU when none available
system.switch_cpus0.iq.fu_full::SimdCvt             0      0.00%     70.01% # attempts to use FU when none available
system.switch_cpus0.iq.fu_full::SimdMisc            0      0.00%     70.01% # attempts to use FU when none available
system.switch_cpus0.iq.fu_full::SimdMult            0      0.00%     70.01% # attempts to use FU when none available
system.switch_cpus0.iq.fu_full::SimdMultAcc            0      0.00%     70.01% # attempts to use FU when none available
system.switch_cpus0.iq.fu_full::SimdShift            0      0.00%     70.01% # attempts to use FU when none available
system.switch_cpus0.iq.fu_full::SimdShiftAcc            0      0.00%     70.01% # attempts to use FU when none available
system.switch_cpus0.iq.fu_full::SimdSqrt            0      0.00%     70.01% # attempts to use FU when none available
system.switch_cpus0.iq.fu_full::SimdFloatAdd            0      0.00%     70.01% # attempts to use FU when none available
system.switch_cpus0.iq.fu_full::SimdFloatAlu            0      0.00%     70.01% # attempts to use FU when none available
system.switch_cpus0.iq.fu_full::SimdFloatCmp            0      0.00%     70.01% # attempts to use FU when none available
system.switch_cpus0.iq.fu_full::SimdFloatCvt            0      0.00%     70.01% # attempts to use FU when none available
system.switch_cpus0.iq.fu_full::SimdFloatDiv            0      0.00%     70.01% # attempts to use FU when none available
system.switch_cpus0.iq.fu_full::SimdFloatMisc            0      0.00%     70.01% # attempts to use FU when none available
system.switch_cpus0.iq.fu_full::SimdFloatMult            0      0.00%     70.01% # attempts to use FU when none available
system.switch_cpus0.iq.fu_full::SimdFloatMultAcc            0      0.00%     70.01% # attempts to use FU when none available
system.switch_cpus0.iq.fu_full::SimdFloatSqrt            0      0.00%     70.01% # attempts to use FU when none available
system.switch_cpus0.iq.fu_full::MemRead        203844     13.17%     83.18% # attempts to use FU when none available
system.switch_cpus0.iq.fu_full::MemWrite       260443     16.82%    100.00% # attempts to use FU when none available
system.switch_cpus0.iq.fu_full::IprAccess            0      0.00%    100.00% # attempts to use FU when none available
system.switch_cpus0.iq.fu_full::InstPrefetch            0      0.00%    100.00% # attempts to use FU when none available
system.switch_cpus0.iq.FU_type_0::No_OpClass            0      0.00%      0.00% # Type of FU issued
system.switch_cpus0.iq.FU_type_0::IntAlu    121587248     82.26%     82.26% # Type of FU issued
system.switch_cpus0.iq.FU_type_0::IntMult      2016819      1.36%     83.62% # Type of FU issued
system.switch_cpus0.iq.FU_type_0::IntDiv            0      0.00%     83.62% # Type of FU issued
system.switch_cpus0.iq.FU_type_0::FloatAdd            0      0.00%     83.62% # Type of FU issued
system.switch_cpus0.iq.FU_type_0::FloatCmp            0      0.00%     83.62% # Type of FU issued
system.switch_cpus0.iq.FU_type_0::FloatCvt            0      0.00%     83.62% # Type of FU issued
system.switch_cpus0.iq.FU_type_0::FloatMult            0      0.00%     83.62% # Type of FU issued
system.switch_cpus0.iq.FU_type_0::FloatDiv            0      0.00%     83.62% # Type of FU issued
system.switch_cpus0.iq.FU_type_0::FloatSqrt            0      0.00%     83.62% # Type of FU issued
system.switch_cpus0.iq.FU_type_0::SimdAdd            0      0.00%     83.62% # Type of FU issued
system.switch_cpus0.iq.FU_type_0::SimdAddAcc            0      0.00%     83.62% # Type of FU issued
system.switch_cpus0.iq.FU_type_0::SimdAlu            0      0.00%     83.62% # Type of FU issued
system.switch_cpus0.iq.FU_type_0::SimdCmp            0      0.00%     83.62% # Type of FU issued
system.switch_cpus0.iq.FU_type_0::SimdCvt            0      0.00%     83.62% # Type of FU issued
system.switch_cpus0.iq.FU_type_0::SimdMisc            0      0.00%     83.62% # Type of FU issued
system.switch_cpus0.iq.FU_type_0::SimdMult            0      0.00%     83.62% # Type of FU issued
system.switch_cpus0.iq.FU_type_0::SimdMultAcc            0      0.00%     83.62% # Type of FU issued
system.switch_cpus0.iq.FU_type_0::SimdShift            0      0.00%     83.62% # Type of FU issued
system.switch_cpus0.iq.FU_type_0::SimdShiftAcc            0      0.00%     83.62% # Type of FU issued
system.switch_cpus0.iq.FU_type_0::SimdSqrt            0      0.00%     83.62% # Type of FU issued
system.switch_cpus0.iq.FU_type_0::SimdFloatAdd            0      0.00%     83.62% # Type of FU issued
system.switch_cpus0.iq.FU_type_0::SimdFloatAlu            0      0.00%     83.62% # Type of FU issued
system.switch_cpus0.iq.FU_type_0::SimdFloatCmp            0      0.00%     83.62% # Type of FU issued
system.switch_cpus0.iq.FU_type_0::SimdFloatCvt            0      0.00%     83.62% # Type of FU issued
system.switch_cpus0.iq.FU_type_0::SimdFloatDiv            0      0.00%     83.62% # Type of FU issued
system.switch_cpus0.iq.FU_type_0::SimdFloatMisc        16022      0.01%     83.64% # Type of FU issued
system.switch_cpus0.iq.FU_type_0::SimdFloatMult            0      0.00%     83.64% # Type of FU issued
system.switch_cpus0.iq.FU_type_0::SimdFloatMultAcc            0      0.00%     83.64% # Type of FU issued
system.switch_cpus0.iq.FU_type_0::SimdFloatSqrt            0      0.00%     83.64% # Type of FU issued
system.switch_cpus0.iq.FU_type_0::MemRead     15749911     10.66%     94.29% # Type of FU issued
system.switch_cpus0.iq.FU_type_0::MemWrite      8438433      5.71%    100.00% # Type of FU issued
system.switch_cpus0.iq.FU_type_0::IprAccess            0      0.00%    100.00% # Type of FU issued
system.switch_cpus0.iq.FU_type_0::InstPrefetch            0      0.00%    100.00% # Type of FU issued
system.switch_cpus0.iq.FU_type_0::total     147808433                       # Type of FU issued
system.switch_cpus0.iq.rate                  1.724955                       # Inst issue rate
system.switch_cpus0.iq.fu_busy_cnt            1548376                       # FU busy when requested
system.switch_cpus0.iq.fu_busy_rate          0.010476                       # FU busy rate (busy events/executed inst)
system.switch_cpus0.iq.int_inst_queue_reads    381681893                       # Number of integer instruction queue reads
system.switch_cpus0.iq.int_inst_queue_writes    244987526                       # Number of integer instruction queue writes
system.switch_cpus0.iq.int_inst_queue_wakeup_accesses    143660690                       # Number of integer instruction queue wakeup accesses
system.switch_cpus0.iq.fp_inst_queue_reads            0                       # Number of floating instruction queue reads
system.switch_cpus0.iq.fp_inst_queue_writes            0                       # Number of floating instruction queue writes
system.switch_cpus0.iq.fp_inst_queue_wakeup_accesses            0                       # Number of floating instruction queue wakeup accesses
system.switch_cpus0.iq.int_alu_accesses     149356809                       # Number of integer alu accesses
system.switch_cpus0.iq.fp_alu_accesses              0                       # Number of floating point alu accesses
system.switch_cpus0.iew.lsq.thread0.forwLoads       263371                       # Number of loads that had data forwarded from stores
system.switch_cpus0.iew.lsq.thread0.invAddrLoads            0                       # Number of loads ignored due to an invalid address
system.switch_cpus0.iew.lsq.thread0.squashedLoads      7021853                       # Number of loads squashed
system.switch_cpus0.iew.lsq.thread0.ignoredResponses          434                       # Number of memory responses ignored because the instruction is squashed
system.switch_cpus0.iew.lsq.thread0.memOrderViolation         1087                       # Number of memory ordering violations
system.switch_cpus0.iew.lsq.thread0.squashedStores      2284589                       # Number of stores squashed
system.switch_cpus0.iew.lsq.thread0.invAddrSwpfs            0                       # Number of software prefetches ignored due to an invalid address
system.switch_cpus0.iew.lsq.thread0.blockedLoads            0                       # Number of blocked loads due to partial load-store forwarding
system.switch_cpus0.iew.lsq.thread0.rescheduledLoads          576                       # Number of loads that were rescheduled
system.switch_cpus0.iew.lsq.thread0.cacheBlocked            0                       # Number of times an access to memory failed due to the cache being blocked
system.switch_cpus0.iew.iewIdleCycles               0                       # Number of cycles IEW is idle
system.switch_cpus0.iew.iewSquashCycles       8751040                       # Number of cycles IEW is squashing
system.switch_cpus0.iew.iewBlockCycles        2095107                       # Number of cycles IEW is blocking
system.switch_cpus0.iew.iewUnblockCycles       164482                       # Number of cycles IEW is unblocking
system.switch_cpus0.iew.iewDispatchedInsts    183960948                       # Number of instructions dispatched to IQ
system.switch_cpus0.iew.iewDispSquashedInsts       315348                       # Number of squashed instructions skipped by dispatch
system.switch_cpus0.iew.iewDispLoadInsts     19233982                       # Number of dispatched load instructions
system.switch_cpus0.iew.iewDispStoreInsts     10026262                       # Number of dispatched store instructions
system.switch_cpus0.iew.iewDispNonSpecInsts        18265                       # Number of dispatched non-speculative instructions
system.switch_cpus0.iew.iewIQFullEvents        119691                       # Number of times the IQ has become full, causing a stall
system.switch_cpus0.iew.iewLSQFullEvents         7979                       # Number of times the LSQ has become full, causing a stall
system.switch_cpus0.iew.memOrderViolationEvents         1087                       # Number of memory order violations
system.switch_cpus0.iew.predictedTakenIncorrect      1234543                       # Number of branches that were predicted taken incorrectly
system.switch_cpus0.iew.predictedNotTakenIncorrect      1128114                       # Number of branches that were predicted not taken incorrectly
system.switch_cpus0.iew.branchMispredicts      2362657                       # Number of branch mispredicts detected at execute
system.switch_cpus0.iew.iewExecutedInsts    145229468                       # Number of executed instructions
system.switch_cpus0.iew.iewExecLoadInsts     14798538                       # Number of load instructions executed
system.switch_cpus0.iew.iewExecSquashedInsts      2578961                       # Number of squashed instructions skipped in execute
system.switch_cpus0.iew.exec_swp                    0                       # number of swp insts executed
system.switch_cpus0.iew.exec_nop                    0                       # number of nop insts executed
system.switch_cpus0.iew.exec_refs            22996377                       # number of memory reference insts executed
system.switch_cpus0.iew.exec_branches        20588022                       # Number of branches executed
system.switch_cpus0.iew.exec_stores           8197839                       # Number of stores executed
system.switch_cpus0.iew.exec_rate            1.694858                       # Inst execution rate
system.switch_cpus0.iew.wb_sent             143807109                       # cumulative count of insts sent to commit
system.switch_cpus0.iew.wb_count            143660690                       # cumulative count of insts written-back
system.switch_cpus0.iew.wb_producers         93712841                       # num instructions producing a value
system.switch_cpus0.iew.wb_consumers        261771198                       # num instructions consuming a value
system.switch_cpus0.iew.wb_penalized                0                       # number of instrctions required to write to 'other' IQ
system.switch_cpus0.iew.wb_rate              1.676550                       # insts written-back per cycle
system.switch_cpus0.iew.wb_fanout            0.357995                       # average fanout of values written-back
system.switch_cpus0.iew.wb_penalized_rate            0                       # fraction of instructions written-back that wrote to 'other' IQ
system.switch_cpus0.commit.commitCommittedInsts    100000000                       # The number of committed instructions
system.switch_cpus0.commit.commitCommittedOps    122421920                       # The number of committed instructions
system.switch_cpus0.commit.commitSquashedInsts     61542282                       # The number of squashed insts skipped by commit
system.switch_cpus0.commit.commitNonSpecStalls        32044                       # The number of times commit has been forced to stall to communicate backwards
system.switch_cpus0.commit.branchMispredicts      2043012                       # The number of times a branch was mispredicted
system.switch_cpus0.commit.committed_per_cycle::samples     75483769                       # Number of insts commited each cycle
system.switch_cpus0.commit.committed_per_cycle::mean     1.621831                       # Number of insts commited each cycle
system.switch_cpus0.commit.committed_per_cycle::stdev     2.170565                       # Number of insts commited each cycle
system.switch_cpus0.commit.committed_per_cycle::underflows            0      0.00%      0.00% # Number of insts commited each cycle
system.switch_cpus0.commit.committed_per_cycle::0     30173979     39.97%     39.97% # Number of insts commited each cycle
system.switch_cpus0.commit.committed_per_cycle::1     20453364     27.10%     67.07% # Number of insts commited each cycle
system.switch_cpus0.commit.committed_per_cycle::2      8374073     11.09%     78.16% # Number of insts commited each cycle
system.switch_cpus0.commit.committed_per_cycle::3      4290754      5.68%     83.85% # Number of insts commited each cycle
system.switch_cpus0.commit.committed_per_cycle::4      3688869      4.89%     88.74% # Number of insts commited each cycle
system.switch_cpus0.commit.committed_per_cycle::5      1810638      2.40%     91.13% # Number of insts commited each cycle
system.switch_cpus0.commit.committed_per_cycle::6      1994501      2.64%     93.78% # Number of insts commited each cycle
system.switch_cpus0.commit.committed_per_cycle::7      1008252      1.34%     95.11% # Number of insts commited each cycle
system.switch_cpus0.commit.committed_per_cycle::8      3689339      4.89%    100.00% # Number of insts commited each cycle
system.switch_cpus0.commit.committed_per_cycle::overflows            0      0.00%    100.00% # Number of insts commited each cycle
system.switch_cpus0.commit.committed_per_cycle::min_value            0                       # Number of insts commited each cycle
system.switch_cpus0.commit.committed_per_cycle::max_value            8                       # Number of insts commited each cycle
system.switch_cpus0.commit.committed_per_cycle::total     75483769                       # Number of insts commited each cycle
system.switch_cpus0.commit.committedInsts    100000000                       # Number of instructions committed
system.switch_cpus0.commit.committedOps     122421920                       # Number of ops (including micro ops) committed
system.switch_cpus0.commit.swp_count                0                       # Number of s/w prefetches committed
system.switch_cpus0.commit.refs              19953799                       # Number of memory references committed
system.switch_cpus0.commit.loads             12212129                       # Number of loads committed
system.switch_cpus0.commit.membars              16022                       # Number of memory barriers committed
system.switch_cpus0.commit.branches          17573934                       # Number of branches committed
system.switch_cpus0.commit.fp_insts                 0                       # Number of committed floating point instructions.
system.switch_cpus0.commit.int_insts        110146126                       # Number of committed integer instructions.
system.switch_cpus0.commit.function_calls      2413416                       # Number of function calls committed.
system.switch_cpus0.commit.bw_lim_events      3689339                       # number cycles where commit BW limit reached
system.switch_cpus0.commit.bw_limited               0                       # number of insts not committed due to BW limits
system.switch_cpus0.rob.rob_reads           255758632                       # The number of ROB reads
system.switch_cpus0.rob.rob_writes          376687790                       # The number of ROB writes
system.switch_cpus0.timesIdled                  43116                       # Number of times that the entire CPU went into an idle state and unscheduled itself
system.switch_cpus0.idleCycles                1453496                       # Total number of cycles that the CPU has spent unscheduled due to idling
system.switch_cpus0.committedInsts          100000000                       # Number of Instructions Simulated
system.switch_cpus0.committedOps            122421920                       # Number of Ops (including micro ops) Simulated
system.switch_cpus0.committedInsts_total    100000000                       # Number of Instructions Simulated
system.switch_cpus0.cpi                      0.856883                       # CPI: Cycles Per Instruction
system.switch_cpus0.cpi_total                0.856883                       # CPI: Total CPI of All Threads
system.switch_cpus0.ipc                      1.167020                       # IPC: Instructions Per Cycle
system.switch_cpus0.ipc_total                1.167020                       # IPC: Total IPC of All Threads
system.switch_cpus0.int_regfile_reads       655714406                       # number of integer regfile reads
system.switch_cpus0.int_regfile_writes      197063406                       # number of integer regfile writes
system.switch_cpus0.misc_regfile_reads      189410006                       # number of misc regfile reads
system.switch_cpus0.misc_regfile_writes         32044                       # number of misc regfile writes
system.switch_cpus1.dtb.inst_hits                   0                       # ITB inst hits
system.switch_cpus1.dtb.inst_misses                 0                       # ITB inst misses
system.switch_cpus1.dtb.read_hits                   0                       # DTB read hits
system.switch_cpus1.dtb.read_misses                 0                       # DTB read misses
system.switch_cpus1.dtb.write_hits                  0                       # DTB write hits
system.switch_cpus1.dtb.write_misses                0                       # DTB write misses
system.switch_cpus1.dtb.flush_tlb                   0                       # Number of times complete TLB was flushed
system.switch_cpus1.dtb.flush_tlb_mva               0                       # Number of times TLB was flushed by MVA
system.switch_cpus1.dtb.flush_tlb_mva_asid            0                       # Number of times TLB was flushed by MVA & ASID
system.switch_cpus1.dtb.flush_tlb_asid              0                       # Number of times TLB was flushed by ASID
system.switch_cpus1.dtb.flush_entries               0                       # Number of entries that have been flushed from TLB
system.switch_cpus1.dtb.align_faults                0                       # Number of TLB faults due to alignment restrictions
system.switch_cpus1.dtb.prefetch_faults             0                       # Number of TLB faults due to prefetch
system.switch_cpus1.dtb.domain_faults               0                       # Number of TLB faults due to domain restrictions
system.switch_cpus1.dtb.perms_faults                0                       # Number of TLB faults due to permissions restrictions
system.switch_cpus1.dtb.read_accesses               0                       # DTB read accesses
system.switch_cpus1.dtb.write_accesses              0                       # DTB write accesses
system.switch_cpus1.dtb.inst_accesses               0                       # ITB inst accesses
system.switch_cpus1.dtb.hits                        0                       # DTB hits
system.switch_cpus1.dtb.misses                      0                       # DTB misses
system.switch_cpus1.dtb.accesses                    0                       # DTB accesses
system.switch_cpus1.itb.inst_hits                   0                       # ITB inst hits
system.switch_cpus1.itb.inst_misses                 0                       # ITB inst misses
system.switch_cpus1.itb.read_hits                   0                       # DTB read hits
system.switch_cpus1.itb.read_misses                 0                       # DTB read misses
system.switch_cpus1.itb.write_hits                  0                       # DTB write hits
system.switch_cpus1.itb.write_misses                0                       # DTB write misses
system.switch_cpus1.itb.flush_tlb                   0                       # Number of times complete TLB was flushed
system.switch_cpus1.itb.flush_tlb_mva               0                       # Number of times TLB was flushed by MVA
system.switch_cpus1.itb.flush_tlb_mva_asid            0                       # Number of times TLB was flushed by MVA & ASID
system.switch_cpus1.itb.flush_tlb_asid              0                       # Number of times TLB was flushed by ASID
system.switch_cpus1.itb.flush_entries               0                       # Number of entries that have been flushed from TLB
system.switch_cpus1.itb.align_faults                0                       # Number of TLB faults due to alignment restrictions
system.switch_cpus1.itb.prefetch_faults             0                       # Number of TLB faults due to prefetch
system.switch_cpus1.itb.domain_faults               0                       # Number of TLB faults due to domain restrictions
system.switch_cpus1.itb.perms_faults                0                       # Number of TLB faults due to permissions restrictions
system.switch_cpus1.itb.read_accesses               0                       # DTB read accesses
system.switch_cpus1.itb.write_accesses              0                       # DTB write accesses
system.switch_cpus1.itb.inst_accesses               0                       # ITB inst accesses
system.switch_cpus1.itb.hits                        0                       # DTB hits
system.switch_cpus1.itb.misses                      0                       # DTB misses
system.switch_cpus1.itb.accesses                    0                       # DTB accesses
system.cpu1.workload.num_syscalls                   0                       # Number of system calls
system.switch_cpus1.numCycles                85688305                       # number of cpu cycles simulated
system.switch_cpus1.numWorkItemsStarted             0                       # number of work items this cpu started
system.switch_cpus1.numWorkItemsCompleted            0                       # number of work items this cpu completed
system.switch_cpus1.BPredUnit.lookups        30779743                       # Number of BP lookups
system.switch_cpus1.BPredUnit.condPredicted     25046727                       # Number of conditional branches predicted
system.switch_cpus1.BPredUnit.condIncorrect      2102355                       # Number of conditional branches incorrect
system.switch_cpus1.BPredUnit.BTBLookups     12983103                       # Number of BTB lookups
system.switch_cpus1.BPredUnit.BTBHits        12002485                       # Number of BTB hits
system.switch_cpus1.BPredUnit.BTBCorrect            0                       # Number of correct BTB predictions (this stat may not work properly.
system.switch_cpus1.BPredUnit.usedRAS         3252128                       # Number of times the RAS was used to get a target.
system.switch_cpus1.BPredUnit.RASInCorrect        89191                       # Number of incorrect RAS predictions.
system.switch_cpus1.fetch.icacheStallCycles     30910677                       # Number of cycles fetch is stalled on an Icache miss
system.switch_cpus1.fetch.Insts             170806147                       # Number of instructions fetch has processed
system.switch_cpus1.fetch.Branches           30779743                       # Number of branches that fetch encountered
system.switch_cpus1.fetch.predictedBranches     15254613                       # Number of branches that fetch has predicted taken
system.switch_cpus1.fetch.Cycles             37570777                       # Number of cycles fetch has run and was not squashing or blocked
system.switch_cpus1.fetch.SquashCycles       11286719                       # Number of cycles fetch has spent squashing
system.switch_cpus1.fetch.BlockedCycles       6335258                       # Number of cycles fetch has spent blocked
system.switch_cpus1.fetch.PendingTrapStallCycles           22                       # Number of stall cycles due to pending traps
system.switch_cpus1.fetch.CacheLines         15126539                       # Number of cache lines fetched
system.switch_cpus1.fetch.IcacheSquashes       888189                       # Number of outstanding Icache misses that were squashed
system.switch_cpus1.fetch.rateDist::samples     83954478                       # Number of instructions fetched each cycle (Total)
system.switch_cpus1.fetch.rateDist::mean     2.513235                       # Number of instructions fetched each cycle (Total)
system.switch_cpus1.fetch.rateDist::stdev     3.305541                       # Number of instructions fetched each cycle (Total)
system.switch_cpus1.fetch.rateDist::underflows            0      0.00%      0.00% # Number of instructions fetched each cycle (Total)
system.switch_cpus1.fetch.rateDist::0        46383701     55.25%     55.25% # Number of instructions fetched each cycle (Total)
system.switch_cpus1.fetch.rateDist::1         3305219      3.94%     59.19% # Number of instructions fetched each cycle (Total)
system.switch_cpus1.fetch.rateDist::2         2682745      3.20%     62.38% # Number of instructions fetched each cycle (Total)
system.switch_cpus1.fetch.rateDist::3         6476724      7.71%     70.10% # Number of instructions fetched each cycle (Total)
system.switch_cpus1.fetch.rateDist::4         1746799      2.08%     72.18% # Number of instructions fetched each cycle (Total)
system.switch_cpus1.fetch.rateDist::5         2259064      2.69%     74.87% # Number of instructions fetched each cycle (Total)
system.switch_cpus1.fetch.rateDist::6         1637425      1.95%     76.82% # Number of instructions fetched each cycle (Total)
system.switch_cpus1.fetch.rateDist::7          913048      1.09%     77.90% # Number of instructions fetched each cycle (Total)
system.switch_cpus1.fetch.rateDist::8        18549753     22.10%    100.00% # Number of instructions fetched each cycle (Total)
system.switch_cpus1.fetch.rateDist::overflows            0      0.00%    100.00% # Number of instructions fetched each cycle (Total)
system.switch_cpus1.fetch.rateDist::min_value            0                       # Number of instructions fetched each cycle (Total)
system.switch_cpus1.fetch.rateDist::max_value            8                       # Number of instructions fetched each cycle (Total)
system.switch_cpus1.fetch.rateDist::total     83954478                       # Number of instructions fetched each cycle (Total)
system.switch_cpus1.fetch.branchRate         0.359206                       # Number of branch fetches per cycle
system.switch_cpus1.fetch.rate               1.993343                       # Number of inst fetches per cycle
system.switch_cpus1.decode.IdleCycles        32335483                       # Number of cycles decode is idle
system.switch_cpus1.decode.BlockedCycles      6148687                       # Number of cycles decode is blocked
system.switch_cpus1.decode.RunCycles         36127931                       # Number of cycles decode is running
system.switch_cpus1.decode.UnblockCycles       245501                       # Number of cycles decode is unblocking
system.switch_cpus1.decode.SquashCycles       9096867                       # Number of cycles decode is squashing
system.switch_cpus1.decode.BranchResolved      5237580                       # Number of times decode resolved a branch
system.switch_cpus1.decode.BranchMispred        41209                       # Number of times decode detected a branch misprediction
system.switch_cpus1.decode.DecodedInsts     204191021                       # Number of instructions handled by decode
system.switch_cpus1.decode.SquashedInsts        77390                       # Number of squashed instructions handled by decode
system.switch_cpus1.rename.SquashCycles       9096867                       # Number of cycles rename is squashing
system.switch_cpus1.rename.IdleCycles        34697379                       # Number of cycles rename is idle
system.switch_cpus1.rename.BlockCycles        1402338                       # Number of cycles rename is blocking
system.switch_cpus1.rename.serializeStallCycles      1251721                       # count of cycles rename stalled for serializing inst
system.switch_cpus1.rename.RunCycles         33954111                       # Number of cycles rename is running
system.switch_cpus1.rename.UnblockCycles      3552054                       # Number of cycles rename is unblocking
system.switch_cpus1.rename.RenamedInsts     197000147                       # Number of instructions processed by rename
system.switch_cpus1.rename.ROBFullEvents        35373                       # Number of times rename has blocked due to ROB full
system.switch_cpus1.rename.IQFullEvents       1470140                       # Number of times rename has blocked due to IQ full
system.switch_cpus1.rename.LSQFullEvents      1103570                       # Number of times rename has blocked due to LSQ full
system.switch_cpus1.rename.FullRegisterEvents         1658                       # Number of times there has been no free registers
system.switch_cpus1.rename.RenamedOperands    275880554                       # Number of destination operands rename has renamed
system.switch_cpus1.rename.RenameLookups    919701964                       # Number of register rename lookups that rename has made
system.switch_cpus1.rename.int_rename_lookups    919701964                       # Number of integer rename lookups
system.switch_cpus1.rename.CommittedMaps    169031526                       # Number of HB maps that are committed
system.switch_cpus1.rename.UndoneMaps       106849017                       # Number of HB maps that are undone due to squashing
system.switch_cpus1.rename.serializingInsts        39926                       # count of serializing insts renamed
system.switch_cpus1.rename.tempSerializingInsts        22262                       # count of temporary serializing insts renamed
system.switch_cpus1.rename.skidInsts          9737637                       # count of insts added to the skid buffer
system.switch_cpus1.memDep0.insertedLoads     18378415                       # Number of loads inserted to the mem dependence unit.
system.switch_cpus1.memDep0.insertedStores      9333904                       # Number of stores inserted to the mem dependence unit.
system.switch_cpus1.memDep0.conflictingLoads       146701                       # Number of conflicting loads.
system.switch_cpus1.memDep0.conflictingStores      3165362                       # Number of conflicting stores.
system.switch_cpus1.iq.iqInstsAdded         186272195                       # Number of instructions added to the IQ (excludes non-spec)
system.switch_cpus1.iq.iqNonSpecInstsAdded        38369                       # Number of non-speculative instructions added to the IQ
system.switch_cpus1.iq.iqInstsIssued        147952654                       # Number of instructions issued
system.switch_cpus1.iq.iqSquashedInstsIssued       286167                       # Number of squashed instructions issued
system.switch_cpus1.iq.iqSquashedInstsExamined     64367523                       # Number of squashed instructions iterated over during squash; mainly for profiling
system.switch_cpus1.iq.iqSquashedOperandsExamined    196642694                       # Number of squashed operands that are examined and possibly removed from graph
system.switch_cpus1.iq.iqSquashedNonSpecRemoved         5621                       # Number of squashed non-spec instructions that were removed
system.switch_cpus1.iq.issued_per_cycle::samples     83954478                       # Number of insts issued each cycle
system.switch_cpus1.iq.issued_per_cycle::mean     1.762296                       # Number of insts issued each cycle
system.switch_cpus1.iq.issued_per_cycle::stdev     1.885787                       # Number of insts issued each cycle
system.switch_cpus1.iq.issued_per_cycle::underflows            0      0.00%      0.00% # Number of insts issued each cycle
system.switch_cpus1.iq.issued_per_cycle::0     29091995     34.65%     34.65% # Number of insts issued each cycle
system.switch_cpus1.iq.issued_per_cycle::1     18079533     21.53%     56.19% # Number of insts issued each cycle
system.switch_cpus1.iq.issued_per_cycle::2     11913814     14.19%     70.38% # Number of insts issued each cycle
system.switch_cpus1.iq.issued_per_cycle::3      8762932     10.44%     80.82% # Number of insts issued each cycle
system.switch_cpus1.iq.issued_per_cycle::4      7512006      8.95%     89.76% # Number of insts issued each cycle
system.switch_cpus1.iq.issued_per_cycle::5      3909541      4.66%     94.42% # Number of insts issued each cycle
system.switch_cpus1.iq.issued_per_cycle::6      3344570      3.98%     98.40% # Number of insts issued each cycle
system.switch_cpus1.iq.issued_per_cycle::7       627148      0.75%     99.15% # Number of insts issued each cycle
system.switch_cpus1.iq.issued_per_cycle::8       712939      0.85%    100.00% # Number of insts issued each cycle
system.switch_cpus1.iq.issued_per_cycle::overflows            0      0.00%    100.00% # Number of insts issued each cycle
system.switch_cpus1.iq.issued_per_cycle::min_value            0                       # Number of insts issued each cycle
system.switch_cpus1.iq.issued_per_cycle::max_value            8                       # Number of insts issued each cycle
system.switch_cpus1.iq.issued_per_cycle::total     83954478                       # Number of insts issued each cycle
system.switch_cpus1.iq.fu_full::No_OpClass            0      0.00%      0.00% # attempts to use FU when none available
system.switch_cpus1.iq.fu_full::IntAlu         867807     71.17%     71.17% # attempts to use FU when none available
system.switch_cpus1.iq.fu_full::IntMult             6      0.00%     71.17% # attempts to use FU when none available
system.switch_cpus1.iq.fu_full::IntDiv              0      0.00%     71.17% # attempts to use FU when none available
system.switch_cpus1.iq.fu_full::FloatAdd            0      0.00%     71.17% # attempts to use FU when none available
system.switch_cpus1.iq.fu_full::FloatCmp            0      0.00%     71.17% # attempts to use FU when none available
system.switch_cpus1.iq.fu_full::FloatCvt            0      0.00%     71.17% # attempts to use FU when none available
system.switch_cpus1.iq.fu_full::FloatMult            0      0.00%     71.17% # attempts to use FU when none available
system.switch_cpus1.iq.fu_full::FloatDiv            0      0.00%     71.17% # attempts to use FU when none available
system.switch_cpus1.iq.fu_full::FloatSqrt            0      0.00%     71.17% # attempts to use FU when none available
system.switch_cpus1.iq.fu_full::SimdAdd             0      0.00%     71.17% # attempts to use FU when none available
system.switch_cpus1.iq.fu_full::SimdAddAcc            0      0.00%     71.17% # attempts to use FU when none available
system.switch_cpus1.iq.fu_full::SimdAlu             0      0.00%     71.17% # attempts to use FU when none available
system.switch_cpus1.iq.fu_full::SimdCmp             0      0.00%     71.17% # attempts to use FU when none available
system.switch_cpus1.iq.fu_full::SimdCvt             0      0.00%     71.17% # attempts to use FU when none available
system.switch_cpus1.iq.fu_full::SimdMisc            0      0.00%     71.17% # attempts to use FU when none available
system.switch_cpus1.iq.fu_full::SimdMult            0      0.00%     71.17% # attempts to use FU when none available
system.switch_cpus1.iq.fu_full::SimdMultAcc            0      0.00%     71.17% # attempts to use FU when none available
system.switch_cpus1.iq.fu_full::SimdShift            0      0.00%     71.17% # attempts to use FU when none available
system.switch_cpus1.iq.fu_full::SimdShiftAcc            0      0.00%     71.17% # attempts to use FU when none available
system.switch_cpus1.iq.fu_full::SimdSqrt            0      0.00%     71.17% # attempts to use FU when none available
system.switch_cpus1.iq.fu_full::SimdFloatAdd            0      0.00%     71.17% # attempts to use FU when none available
system.switch_cpus1.iq.fu_full::SimdFloatAlu            0      0.00%     71.17% # attempts to use FU when none available
system.switch_cpus1.iq.fu_full::SimdFloatCmp            0      0.00%     71.17% # attempts to use FU when none available
system.switch_cpus1.iq.fu_full::SimdFloatCvt            0      0.00%     71.17% # attempts to use FU when none available
system.switch_cpus1.iq.fu_full::SimdFloatDiv            0      0.00%     71.17% # attempts to use FU when none available
system.switch_cpus1.iq.fu_full::SimdFloatMisc            0      0.00%     71.17% # attempts to use FU when none available
system.switch_cpus1.iq.fu_full::SimdFloatMult            0      0.00%     71.17% # attempts to use FU when none available
system.switch_cpus1.iq.fu_full::SimdFloatMultAcc            0      0.00%     71.17% # attempts to use FU when none available
system.switch_cpus1.iq.fu_full::SimdFloatSqrt            0      0.00%     71.17% # attempts to use FU when none available
system.switch_cpus1.iq.fu_full::MemRead        176500     14.48%     85.65% # attempts to use FU when none available
system.switch_cpus1.iq.fu_full::MemWrite       175018     14.35%    100.00% # attempts to use FU when none available
system.switch_cpus1.iq.fu_full::IprAccess            0      0.00%    100.00% # attempts to use FU when none available
system.switch_cpus1.iq.fu_full::InstPrefetch            0      0.00%    100.00% # attempts to use FU when none available
system.switch_cpus1.iq.FU_type_0::No_OpClass            0      0.00%      0.00% # Type of FU issued
system.switch_cpus1.iq.FU_type_0::IntAlu    123274568     83.32%     83.32% # Type of FU issued
system.switch_cpus1.iq.FU_type_0::IntMult      2105969      1.42%     84.74% # Type of FU issued
system.switch_cpus1.iq.FU_type_0::IntDiv            0      0.00%     84.74% # Type of FU issued
system.switch_cpus1.iq.FU_type_0::FloatAdd            0      0.00%     84.74% # Type of FU issued
system.switch_cpus1.iq.FU_type_0::FloatCmp            0      0.00%     84.74% # Type of FU issued
system.switch_cpus1.iq.FU_type_0::FloatCvt            0      0.00%     84.74% # Type of FU issued
system.switch_cpus1.iq.FU_type_0::FloatMult            0      0.00%     84.74% # Type of FU issued
system.switch_cpus1.iq.FU_type_0::FloatDiv            0      0.00%     84.74% # Type of FU issued
system.switch_cpus1.iq.FU_type_0::FloatSqrt            0      0.00%     84.74% # Type of FU issued
system.switch_cpus1.iq.FU_type_0::SimdAdd            0      0.00%     84.74% # Type of FU issued
system.switch_cpus1.iq.FU_type_0::SimdAddAcc            0      0.00%     84.74% # Type of FU issued
system.switch_cpus1.iq.FU_type_0::SimdAlu            0      0.00%     84.74% # Type of FU issued
system.switch_cpus1.iq.FU_type_0::SimdCmp            0      0.00%     84.74% # Type of FU issued
system.switch_cpus1.iq.FU_type_0::SimdCvt            0      0.00%     84.74% # Type of FU issued
system.switch_cpus1.iq.FU_type_0::SimdMisc            0      0.00%     84.74% # Type of FU issued
system.switch_cpus1.iq.FU_type_0::SimdMult            0      0.00%     84.74% # Type of FU issued
system.switch_cpus1.iq.FU_type_0::SimdMultAcc            0      0.00%     84.74% # Type of FU issued
system.switch_cpus1.iq.FU_type_0::SimdShift            0      0.00%     84.74% # Type of FU issued
system.switch_cpus1.iq.FU_type_0::SimdShiftAcc            0      0.00%     84.74% # Type of FU issued
system.switch_cpus1.iq.FU_type_0::SimdSqrt            0      0.00%     84.74% # Type of FU issued
system.switch_cpus1.iq.FU_type_0::SimdFloatAdd            0      0.00%     84.74% # Type of FU issued
system.switch_cpus1.iq.FU_type_0::SimdFloatAlu            0      0.00%     84.74% # Type of FU issued
system.switch_cpus1.iq.FU_type_0::SimdFloatCmp            0      0.00%     84.74% # Type of FU issued
system.switch_cpus1.iq.FU_type_0::SimdFloatCvt            0      0.00%     84.74% # Type of FU issued
system.switch_cpus1.iq.FU_type_0::SimdFloatDiv            0      0.00%     84.74% # Type of FU issued
system.switch_cpus1.iq.FU_type_0::SimdFloatMisc        16373      0.01%     84.75% # Type of FU issued
system.switch_cpus1.iq.FU_type_0::SimdFloatMult            0      0.00%     84.75% # Type of FU issued
system.switch_cpus1.iq.FU_type_0::SimdFloatMultAcc            0      0.00%     84.75% # Type of FU issued
system.switch_cpus1.iq.FU_type_0::SimdFloatSqrt            0      0.00%     84.75% # Type of FU issued
system.switch_cpus1.iq.FU_type_0::MemRead     14704319      9.94%     94.69% # Type of FU issued
system.switch_cpus1.iq.FU_type_0::MemWrite      7851425      5.31%    100.00% # Type of FU issued
system.switch_cpus1.iq.FU_type_0::IprAccess            0      0.00%    100.00% # Type of FU issued
system.switch_cpus1.iq.FU_type_0::InstPrefetch            0      0.00%    100.00% # Type of FU issued
system.switch_cpus1.iq.FU_type_0::total     147952654                       # Type of FU issued
system.switch_cpus1.iq.rate                  1.726638                       # Inst issue rate
system.switch_cpus1.iq.fu_busy_cnt            1219331                       # FU busy when requested
system.switch_cpus1.iq.fu_busy_rate          0.008241                       # FU busy rate (busy events/executed inst)
system.switch_cpus1.iq.int_inst_queue_reads    381365284                       # Number of integer instruction queue reads
system.switch_cpus1.iq.int_inst_queue_writes    250678743                       # Number of integer instruction queue writes
system.switch_cpus1.iq.int_inst_queue_wakeup_accesses    144196495                       # Number of integer instruction queue wakeup accesses
system.switch_cpus1.iq.fp_inst_queue_reads            0                       # Number of floating instruction queue reads
system.switch_cpus1.iq.fp_inst_queue_writes            0                       # Number of floating instruction queue writes
system.switch_cpus1.iq.fp_inst_queue_wakeup_accesses            0                       # Number of floating instruction queue wakeup accesses
system.switch_cpus1.iq.int_alu_accesses     149171985                       # Number of integer alu accesses
system.switch_cpus1.iq.fp_alu_accesses              0                       # Number of floating point alu accesses
system.switch_cpus1.iew.lsq.thread0.forwLoads       555305                       # Number of loads that had data forwarded from stores
system.switch_cpus1.iew.lsq.thread0.invAddrLoads            0                       # Number of loads ignored due to an invalid address
system.switch_cpus1.iew.lsq.thread0.squashedLoads      7253998                       # Number of loads squashed
system.switch_cpus1.iew.lsq.thread0.ignoredResponses         3005                       # Number of memory responses ignored because the instruction is squashed
system.switch_cpus1.iew.lsq.thread0.memOrderViolation          657                       # Number of memory ordering violations
system.switch_cpus1.iew.lsq.thread0.squashedStores      2376650                       # Number of stores squashed
system.switch_cpus1.iew.lsq.thread0.invAddrSwpfs            0                       # Number of software prefetches ignored due to an invalid address
system.switch_cpus1.iew.lsq.thread0.blockedLoads            0                       # Number of blocked loads due to partial load-store forwarding
system.switch_cpus1.iew.lsq.thread0.rescheduledLoads            0                       # Number of loads that were rescheduled
system.switch_cpus1.iew.lsq.thread0.cacheBlocked            0                       # Number of times an access to memory failed due to the cache being blocked
system.switch_cpus1.iew.iewIdleCycles               0                       # Number of cycles IEW is idle
system.switch_cpus1.iew.iewSquashCycles       9096867                       # Number of cycles IEW is squashing
system.switch_cpus1.iew.iewBlockCycles         555686                       # Number of cycles IEW is blocking
system.switch_cpus1.iew.iewUnblockCycles        80760                       # Number of cycles IEW is unblocking
system.switch_cpus1.iew.iewDispatchedInsts    186310566                       # Number of instructions dispatched to IQ
system.switch_cpus1.iew.iewDispSquashedInsts       465866                       # Number of squashed instructions skipped by dispatch
system.switch_cpus1.iew.iewDispLoadInsts     18378415                       # Number of dispatched load instructions
system.switch_cpus1.iew.iewDispStoreInsts      9333904                       # Number of dispatched store instructions
system.switch_cpus1.iew.iewDispNonSpecInsts        21995                       # Number of dispatched non-speculative instructions
system.switch_cpus1.iew.iewIQFullEvents         72300                       # Number of times the IQ has become full, causing a stall
system.switch_cpus1.iew.iewLSQFullEvents            1                       # Number of times the LSQ has become full, causing a stall
system.switch_cpus1.iew.memOrderViolationEvents          657                       # Number of memory order violations
system.switch_cpus1.iew.predictedTakenIncorrect      1259250                       # Number of branches that were predicted taken incorrectly
system.switch_cpus1.iew.predictedNotTakenIncorrect      1179888                       # Number of branches that were predicted not taken incorrectly
system.switch_cpus1.iew.branchMispredicts      2439138                       # Number of branch mispredicts detected at execute
system.switch_cpus1.iew.iewExecutedInsts    145618255                       # Number of executed instructions
system.switch_cpus1.iew.iewExecLoadInsts     13790385                       # Number of load instructions executed
system.switch_cpus1.iew.iewExecSquashedInsts      2334399                       # Number of squashed instructions skipped in execute
system.switch_cpus1.iew.exec_swp                    0                       # number of swp insts executed
system.switch_cpus1.iew.exec_nop                    2                       # number of nop insts executed
system.switch_cpus1.iew.exec_refs            21444904                       # number of memory reference insts executed
system.switch_cpus1.iew.exec_branches        20533797                       # Number of branches executed
system.switch_cpus1.iew.exec_stores           7654519                       # Number of stores executed
system.switch_cpus1.iew.exec_rate            1.699395                       # Inst execution rate
system.switch_cpus1.iew.wb_sent             144292698                       # cumulative count of insts sent to commit
system.switch_cpus1.iew.wb_count            144196495                       # cumulative count of insts written-back
system.switch_cpus1.iew.wb_producers         93989025                       # num instructions producing a value
system.switch_cpus1.iew.wb_consumers        265352985                       # num instructions consuming a value
system.switch_cpus1.iew.wb_penalized                0                       # number of instrctions required to write to 'other' IQ
system.switch_cpus1.iew.wb_rate              1.682803                       # insts written-back per cycle
system.switch_cpus1.iew.wb_fanout            0.354204                       # average fanout of values written-back
system.switch_cpus1.iew.wb_penalized_rate            0                       # fraction of instructions written-back that wrote to 'other' IQ
system.switch_cpus1.commit.commitCommittedInsts     99024636                       # The number of committed instructions
system.switch_cpus1.commit.commitCommittedOps    121611710                       # The number of committed instructions
system.switch_cpus1.commit.commitSquashedInsts     64699653                       # The number of squashed insts skipped by commit
system.switch_cpus1.commit.commitNonSpecStalls        32748                       # The number of times commit has been forced to stall to communicate backwards
[...]
system.cpu3.icache.ReadReq_miss_latency::switch_cpus3.inst       968582                       # number of ReadReq miss cycles
system.cpu3.icache.ReadReq_miss_latency::total       968582                       # number of ReadReq miss cycles
system.cpu3.icache.demand_miss_latency::switch_cpus3.inst       968582                       # number of demand (read+write) miss cycles
system.cpu3.icache.demand_miss_latency::total       968582                       # number of demand (read+write) miss cycles
system.cpu3.icache.overall_miss_latency::switch_cpus3.inst       968582                       # number of overall miss cycles
system.cpu3.icache.overall_miss_latency::total       968582                       # number of overall miss cycles
system.cpu3.icache.ReadReq_accesses::switch_cpus3.inst     16233064                       # number of ReadReq accesses(hits+misses)
system.cpu3.icache.ReadReq_accesses::total     16233064                       # number of ReadReq accesses(hits+misses)
system.cpu3.icache.demand_accesses::switch_cpus3.inst     16233064                       # number of demand (read+write) accesses
system.cpu3.icache.demand_accesses::total     16233064                       # number of demand (read+write) accesses
system.cpu3.icache.overall_accesses::switch_cpus3.inst     16233064                       # number of overall (read+write) accesses
system.cpu3.icache.overall_accesses::total     16233064                       # number of overall (read+write) accesses
system.cpu3.icache.ReadReq_miss_rate::switch_cpus3.inst     0.000001                       # miss rate for ReadReq accesses
system.cpu3.icache.ReadReq_miss_rate::total     0.000001                       # miss rate for ReadReq accesses
system.cpu3.icache.demand_miss_rate::switch_cpus3.inst     0.000001                       # miss rate for demand accesses
system.cpu3.icache.demand_miss_rate::total     0.000001                       # miss rate for demand accesses
system.cpu3.icache.overall_miss_rate::switch_cpus3.inst     0.000001                       # miss rate for overall accesses
system.cpu3.icache.overall_miss_rate::total     0.000001                       # miss rate for overall accesses
system.cpu3.icache.ReadReq_avg_miss_latency::switch_cpus3.inst        50978                       # average ReadReq miss latency
system.cpu3.icache.ReadReq_avg_miss_latency::total        50978                       # average ReadReq miss latency
system.cpu3.icache.demand_avg_miss_latency::switch_cpus3.inst        50978                       # average overall miss latency
system.cpu3.icache.demand_avg_miss_latency::total        50978                       # average overall miss latency
system.cpu3.icache.overall_avg_miss_latency::switch_cpus3.inst        50978                       # average overall miss latency
system.cpu3.icache.overall_avg_miss_latency::total        50978                       # average overall miss latency
system.cpu3.icache.blocked_cycles::no_mshrs            0                       # number of cycles access was blocked
system.cpu3.icache.blocked_cycles::no_targets            0                       # number of cycles access was blocked
system.cpu3.icache.blocked::no_mshrs                0                       # number of cycles access was blocked
system.cpu3.icache.blocked::no_targets              0                       # number of cycles access was blocked
system.cpu3.icache.avg_blocked_cycles::no_mshrs          nan                       # average number of cycles each access was blocked
system.cpu3.icache.avg_blocked_cycles::no_targets          nan                       # average number of cycles each access was blocked
system.cpu3.icache.fast_writes                      0                       # number of fast writes performed
system.cpu3.icache.cache_copies                     0                       # number of cache copies performed
system.cpu3.icache.ReadReq_mshr_hits::switch_cpus3.inst            2                       # number of ReadReq MSHR hits
system.cpu3.icache.ReadReq_mshr_hits::total            2                       # number of ReadReq MSHR hits
system.cpu3.icache.demand_mshr_hits::switch_cpus3.inst            2                       # number of demand (read+write) MSHR hits
system.cpu3.icache.demand_mshr_hits::total            2                       # number of demand (read+write) MSHR hits
system.cpu3.icache.overall_mshr_hits::switch_cpus3.inst            2                       # number of overall MSHR hits
system.cpu3.icache.overall_mshr_hits::total            2                       # number of overall MSHR hits
system.cpu3.icache.ReadReq_mshr_misses::switch_cpus3.inst           17                       # number of ReadReq MSHR misses
system.cpu3.icache.ReadReq_mshr_misses::total           17                       # number of ReadReq MSHR misses
system.cpu3.icache.demand_mshr_misses::switch_cpus3.inst           17                       # number of demand (read+write) MSHR misses
system.cpu3.icache.demand_mshr_misses::total           17                       # number of demand (read+write) MSHR misses
system.cpu3.icache.overall_mshr_misses::switch_cpus3.inst           17                       # number of overall MSHR misses
system.cpu3.icache.overall_mshr_misses::total           17                       # number of overall MSHR misses
system.cpu3.icache.ReadReq_mshr_miss_latency::switch_cpus3.inst       843759                       # number of ReadReq MSHR miss cycles
system.cpu3.icache.ReadReq_mshr_miss_latency::total       843759                       # number of ReadReq MSHR miss cycles
system.cpu3.icache.demand_mshr_miss_latency::switch_cpus3.inst       843759                       # number of demand (read+write) MSHR miss cycles
system.cpu3.icache.demand_mshr_miss_latency::total       843759                       # number of demand (read+write) MSHR miss cycles
system.cpu3.icache.overall_mshr_miss_latency::switch_cpus3.inst       843759                       # number of overall MSHR miss cycles
system.cpu3.icache.overall_mshr_miss_latency::total       843759                       # number of overall MSHR miss cycles
system.cpu3.icache.ReadReq_mshr_miss_rate::switch_cpus3.inst     0.000001                       # mshr miss rate for ReadReq accesses
system.cpu3.icache.ReadReq_mshr_miss_rate::total     0.000001                       # mshr miss rate for ReadReq accesses
system.cpu3.icache.demand_mshr_miss_rate::switch_cpus3.inst     0.000001                       # mshr miss rate for demand accesses
system.cpu3.icache.demand_mshr_miss_rate::total     0.000001                       # mshr miss rate for demand accesses
system.cpu3.icache.overall_mshr_miss_rate::switch_cpus3.inst     0.000001                       # mshr miss rate for overall accesses
system.cpu3.icache.overall_mshr_miss_rate::total     0.000001                       # mshr miss rate for overall accesses
system.cpu3.icache.ReadReq_avg_mshr_miss_latency::switch_cpus3.inst 49632.882353                       # average ReadReq mshr miss latency
system.cpu3.icache.ReadReq_avg_mshr_miss_latency::total 49632.882353                       # average ReadReq mshr miss latency
system.cpu3.icache.demand_avg_mshr_miss_latency::switch_cpus3.inst 49632.882353                       # average overall mshr miss latency
system.cpu3.icache.demand_avg_mshr_miss_latency::total 49632.882353                       # average overall mshr miss latency
system.cpu3.icache.overall_avg_mshr_miss_latency::switch_cpus3.inst 49632.882353                       # average overall mshr miss latency
system.cpu3.icache.overall_avg_mshr_miss_latency::total 49632.882353                       # average overall mshr miss latency
system.cpu3.icache.no_allocate_misses               0                       # Number of misses that were no-allocate
system.cpu3.dcache.replacements                 33668                       # number of replacements
system.cpu3.dcache.tagsinuse                      256                       # Cycle average of tags in use
system.cpu3.dcache.total_refs               164963643                       # Total number of references to valid blocks.
system.cpu3.dcache.sampled_refs                 33924                       # Sample count of references to valid blocks.
system.cpu3.dcache.avg_refs               4862.741510                       # Average number of references to valid blocks.
system.cpu3.dcache.warmup_cycle                     0                       # Cycle when the warmup percentage was hit.
system.cpu3.dcache.occ_blocks::switch_cpus3.data   231.019879                       # Average occupied blocks per requestor
system.cpu3.dcache.occ_blocks::cpu3.data    24.980121                       # Average occupied blocks per requestor
system.cpu3.dcache.occ_percent::switch_cpus3.data     0.902421                       # Average percentage of cache occupancy
system.cpu3.dcache.occ_percent::cpu3.data     0.097579                       # Average percentage of cache occupancy
system.cpu3.dcache.occ_percent::total               1                       # Average percentage of cache occupancy
system.cpu3.dcache.ReadReq_hits::switch_cpus3.data     10573334                       # number of ReadReq hits
system.cpu3.dcache.ReadReq_hits::total       10573334                       # number of ReadReq hits
system.cpu3.dcache.WriteReq_hits::switch_cpus3.data      7214718                       # number of WriteReq hits
system.cpu3.dcache.WriteReq_hits::total       7214718                       # number of WriteReq hits
system.cpu3.dcache.LoadLockedReq_hits::switch_cpus3.data        17459                       # number of LoadLockedReq hits
system.cpu3.dcache.LoadLockedReq_hits::total        17459                       # number of LoadLockedReq hits
system.cpu3.dcache.StoreCondReq_hits::switch_cpus3.data        17430                       # number of StoreCondReq hits
system.cpu3.dcache.StoreCondReq_hits::total        17430                       # number of StoreCondReq hits
system.cpu3.dcache.demand_hits::switch_cpus3.data     17788052                       # number of demand (read+write) hits
system.cpu3.dcache.demand_hits::total        17788052                       # number of demand (read+write) hits
system.cpu3.dcache.overall_hits::switch_cpus3.data     17788052                       # number of overall hits
system.cpu3.dcache.overall_hits::total       17788052                       # number of overall hits
system.cpu3.dcache.ReadReq_misses::switch_cpus3.data        69342                       # number of ReadReq misses
system.cpu3.dcache.ReadReq_misses::total        69342                       # number of ReadReq misses
system.cpu3.dcache.demand_misses::switch_cpus3.data        69342                       # number of demand (read+write) misses
system.cpu3.dcache.demand_misses::total         69342                       # number of demand (read+write) misses
system.cpu3.dcache.overall_misses::switch_cpus3.data        69342                       # number of overall misses
system.cpu3.dcache.overall_misses::total        69342                       # number of overall misses
system.cpu3.dcache.ReadReq_miss_latency::switch_cpus3.data   2109054868                       # number of ReadReq miss cycles
system.cpu3.dcache.ReadReq_miss_latency::total   2109054868                       # number of ReadReq miss cycles
system.cpu3.dcache.demand_miss_latency::switch_cpus3.data   2109054868                       # number of demand (read+write) miss cycles
system.cpu3.dcache.demand_miss_latency::total   2109054868                       # number of demand (read+write) miss cycles
system.cpu3.dcache.overall_miss_latency::switch_cpus3.data   2109054868                       # number of overall miss cycles
system.cpu3.dcache.overall_miss_latency::total   2109054868                       # number of overall miss cycles
system.cpu3.dcache.ReadReq_accesses::switch_cpus3.data     10642676                       # number of ReadReq accesses(hits+misses)
system.cpu3.dcache.ReadReq_accesses::total     10642676                       # number of ReadReq accesses(hits+misses)
system.cpu3.dcache.WriteReq_accesses::switch_cpus3.data      7214718                       # number of WriteReq accesses(hits+misses)
system.cpu3.dcache.WriteReq_accesses::total      7214718                       # number of WriteReq accesses(hits+misses)
system.cpu3.dcache.LoadLockedReq_accesses::switch_cpus3.data        17459                       # number of LoadLockedReq accesses(hits+misses)
system.cpu3.dcache.LoadLockedReq_accesses::total        17459                       # number of LoadLockedReq accesses(hits+misses)
system.cpu3.dcache.StoreCondReq_accesses::switch_cpus3.data        17430                       # number of StoreCondReq accesses(hits+misses)
system.cpu3.dcache.StoreCondReq_accesses::total        17430                       # number of StoreCondReq accesses(hits+misses)
system.cpu3.dcache.demand_accesses::switch_cpus3.data     17857394                       # number of demand (read+write) accesses
system.cpu3.dcache.demand_accesses::total     17857394                       # number of demand (read+write) accesses
system.cpu3.dcache.overall_accesses::switch_cpus3.data     17857394                       # number of overall (read+write) accesses
system.cpu3.dcache.overall_accesses::total     17857394                       # number of overall (read+write) accesses
system.cpu3.dcache.ReadReq_miss_rate::switch_cpus3.data     0.006515                       # miss rate for ReadReq accesses
system.cpu3.dcache.ReadReq_miss_rate::total     0.006515                       # miss rate for ReadReq accesses
system.cpu3.dcache.demand_miss_rate::switch_cpus3.data     0.003883                       # miss rate for demand accesses
system.cpu3.dcache.demand_miss_rate::total     0.003883                       # miss rate for demand accesses
system.cpu3.dcache.overall_miss_rate::switch_cpus3.data     0.003883                       # miss rate for overall accesses
system.cpu3.dcache.overall_miss_rate::total     0.003883                       # miss rate for overall accesses
system.cpu3.dcache.ReadReq_avg_miss_latency::switch_cpus3.data 30415.258689                       # average ReadReq miss latency
system.cpu3.dcache.ReadReq_avg_miss_latency::total 30415.258689                       # average ReadReq miss latency
system.cpu3.dcache.demand_avg_miss_latency::switch_cpus3.data 30415.258689                       # average overall miss latency
system.cpu3.dcache.demand_avg_miss_latency::total 30415.258689                       # average overall miss latency
system.cpu3.dcache.overall_avg_miss_latency::switch_cpus3.data 30415.258689                       # average overall miss latency
system.cpu3.dcache.overall_avg_miss_latency::total 30415.258689                       # average overall miss latency
system.cpu3.dcache.blocked_cycles::no_mshrs            0                       # number of cycles access was blocked
system.cpu3.dcache.blocked_cycles::no_targets            0                       # number of cycles access was blocked
system.cpu3.dcache.blocked::no_mshrs                0                       # number of cycles access was blocked
system.cpu3.dcache.blocked::no_targets              0                       # number of cycles access was blocked
system.cpu3.dcache.avg_blocked_cycles::no_mshrs          nan                       # average number of cycles each access was blocked
system.cpu3.dcache.avg_blocked_cycles::no_targets          nan                       # average number of cycles each access was blocked
system.cpu3.dcache.fast_writes                      0                       # number of fast writes performed
system.cpu3.dcache.cache_copies                     0                       # number of cache copies performed
system.cpu3.dcache.writebacks::writebacks         8245                       # number of writebacks
system.cpu3.dcache.writebacks::total             8245                       # number of writebacks
system.cpu3.dcache.ReadReq_mshr_hits::switch_cpus3.data        35674                       # number of ReadReq MSHR hits
system.cpu3.dcache.ReadReq_mshr_hits::total        35674                       # number of ReadReq MSHR hits
system.cpu3.dcache.demand_mshr_hits::switch_cpus3.data        35674                       # number of demand (read+write) MSHR hits
system.cpu3.dcache.demand_mshr_hits::total        35674                       # number of demand (read+write) MSHR hits
system.cpu3.dcache.overall_mshr_hits::switch_cpus3.data        35674                       # number of overall MSHR hits
system.cpu3.dcache.overall_mshr_hits::total        35674                       # number of overall MSHR hits
system.cpu3.dcache.ReadReq_mshr_misses::switch_cpus3.data        33668                       # number of ReadReq MSHR misses
system.cpu3.dcache.ReadReq_mshr_misses::total        33668                       # number of ReadReq MSHR misses
system.cpu3.dcache.demand_mshr_misses::switch_cpus3.data        33668                       # number of demand (read+write) MSHR misses
system.cpu3.dcache.demand_mshr_misses::total        33668                       # number of demand (read+write) MSHR misses
system.cpu3.dcache.overall_mshr_misses::switch_cpus3.data        33668                       # number of overall MSHR misses
system.cpu3.dcache.overall_mshr_misses::total        33668                       # number of overall MSHR misses
system.cpu3.dcache.ReadReq_mshr_miss_latency::switch_cpus3.data    666298246                       # number of ReadReq MSHR miss cycles
system.cpu3.dcache.ReadReq_mshr_miss_latency::total    666298246                       # number of ReadReq MSHR miss cycles
system.cpu3.dcache.demand_mshr_miss_latency::switch_cpus3.data    666298246                       # number of demand (read+write) MSHR miss cycles
system.cpu3.dcache.demand_mshr_miss_latency::total    666298246                       # number of demand (read+write) MSHR miss cycles
system.cpu3.dcache.overall_mshr_miss_latency::switch_cpus3.data    666298246                       # number of overall MSHR miss cycles
system.cpu3.dcache.overall_mshr_miss_latency::total    666298246                       # number of overall MSHR miss cycles
system.cpu3.dcache.ReadReq_mshr_miss_rate::switch_cpus3.data     0.003163                       # mshr miss rate for ReadReq accesses
system.cpu3.dcache.ReadReq_mshr_miss_rate::total     0.003163                       # mshr miss rate for ReadReq accesses
system.cpu3.dcache.demand_mshr_miss_rate::switch_cpus3.data     0.001885                       # mshr miss rate for demand accesses
system.cpu3.dcache.demand_mshr_miss_rate::total     0.001885                       # mshr miss rate for demand accesses
system.cpu3.dcache.overall_mshr_miss_rate::switch_cpus3.data     0.001885                       # mshr miss rate for overall accesses
system.cpu3.dcache.overall_mshr_miss_rate::total     0.001885                       # mshr miss rate for overall accesses
system.cpu3.dcache.ReadReq_avg_mshr_miss_latency::switch_cpus3.data 19790.253237                       # average ReadReq mshr miss latency
system.cpu3.dcache.ReadReq_avg_mshr_miss_latency::total 19790.253237                       # average ReadReq mshr miss latency
system.cpu3.dcache.demand_avg_mshr_miss_latency::switch_cpus3.data 19790.253237                       # average overall mshr miss latency
system.cpu3.dcache.demand_avg_mshr_miss_latency::total 19790.253237                       # average overall mshr miss latency
system.cpu3.dcache.overall_avg_mshr_miss_latency::switch_cpus3.data 19790.253237                       # average overall mshr miss latency
system.cpu3.dcache.overall_avg_mshr_miss_latency::total 19790.253237                       # average overall mshr miss latency
system.cpu3.dcache.no_allocate_misses               0                       # Number of misses that were no-allocate

---------- End Simulation Statistics   ----------
