
---------- Begin Simulation Statistics ----------
final_tick                               1261813275684                       # Number of ticks from beginning of simulation (restored from checkpoints and never reset)
host_inst_rate                                 229745                       # Simulator instruction rate (inst/s)
host_mem_usage                              135237728                       # Number of bytes of host memory used
host_op_rate                                   270013                       # Simulator op (including micro ops) rate (op/s)
host_seconds                                 84160.38                       # Real time elapsed on the host
host_tick_rate                                3610449                       # Simulator tick rate (ticks/s)
sim_freq                                 1000000000000                       # Frequency of simulated ticks
sim_insts                                 19335448003                       # Number of instructions simulated
sim_ops                                   22724382201                       # Number of ops (including micro ops) simulated
sim_seconds                                  0.303857                       # Number of seconds simulated
sim_ticks                                303856782522                       # Number of ticks simulated
system.cpu00.committedInsts                         0                       # Number of instructions committed
system.cpu00.committedOps                           0                       # Number of ops (including micro ops) committed
system.cpu00.dtb.accesses                           0                       # DTB accesses
system.cpu00.dtb.align_faults                       0                       # Number of TLB faults due to alignment restrictions
system.cpu00.dtb.domain_faults                      0                       # Number of TLB faults due to domain restrictions
system.cpu00.dtb.flush_entries                      0                       # Number of entries that have been flushed from TLB
system.cpu00.dtb.flush_tlb                          0                       # Number of times complete TLB was flushed
system.cpu00.dtb.flush_tlb_asid                     0                       # Number of times TLB was flushed by ASID
system.cpu00.dtb.flush_tlb_mva                      0                       # Number of times TLB was flushed by MVA
system.cpu00.dtb.flush_tlb_mva_asid                 0                       # Number of times TLB was flushed by MVA & ASID
system.cpu00.dtb.hits                               0                       # DTB hits
system.cpu00.dtb.inst_accesses                      0                       # ITB inst accesses
system.cpu00.dtb.inst_hits                          0                       # ITB inst hits
system.cpu00.dtb.inst_misses                        0                       # ITB inst misses
system.cpu00.dtb.misses                             0                       # DTB misses
system.cpu00.dtb.perms_faults                       0                       # Number of TLB faults due to permissions restrictions
system.cpu00.dtb.prefetch_faults                    0                       # Number of TLB faults due to prefetch
system.cpu00.dtb.read_accesses                      0                       # DTB read accesses
system.cpu00.dtb.read_hits                          0                       # DTB read hits
system.cpu00.dtb.read_misses                        0                       # DTB read misses
system.cpu00.dtb.stage2_mmu.stage2_tlb.accesses            0                       # DTB accesses
system.cpu00.dtb.stage2_mmu.stage2_tlb.align_faults            0                       # Number of TLB faults due to alignment restrictions
system.cpu00.dtb.stage2_mmu.stage2_tlb.domain_faults            0                       # Number of TLB faults due to domain restrictions
system.cpu00.dtb.stage2_mmu.stage2_tlb.flush_entries            0                       # Number of entries that have been flushed from TLB
system.cpu00.dtb.stage2_mmu.stage2_tlb.flush_tlb            0                       # Number of times complete TLB was flushed
system.cpu00.dtb.stage2_mmu.stage2_tlb.flush_tlb_asid            0                       # Number of times TLB was flushed by ASID
system.cpu00.dtb.stage2_mmu.stage2_tlb.flush_tlb_mva            0                       # Number of times TLB was flushed by MVA
system.cpu00.dtb.stage2_mmu.stage2_tlb.flush_tlb_mva_asid            0                       # Number of times TLB was flushed by MVA & ASID
system.cpu00.dtb.stage2_mmu.stage2_tlb.hits            0                       # DTB hits
system.cpu00.dtb.stage2_mmu.stage2_tlb.inst_accesses            0                       # ITB inst accesses
system.cpu00.dtb.stage2_mmu.stage2_tlb.inst_hits            0                       # ITB inst hits
system.cpu00.dtb.stage2_mmu.stage2_tlb.inst_misses            0                       # ITB inst misses
system.cpu00.dtb.stage2_mmu.stage2_tlb.misses            0                       # DTB misses
system.cpu00.dtb.stage2_mmu.stage2_tlb.perms_faults            0                       # Number of TLB faults due to permissions restrictions
system.cpu00.dtb.stage2_mmu.stage2_tlb.prefetch_faults            0                       # Number of TLB faults due to prefetch
system.cpu00.dtb.stage2_mmu.stage2_tlb.read_accesses            0                       # DTB read accesses
system.cpu00.dtb.stage2_mmu.stage2_tlb.read_hits            0                       # DTB read hits
system.cpu00.dtb.stage2_mmu.stage2_tlb.read_misses            0                       # DTB read misses
system.cpu00.dtb.stage2_mmu.stage2_tlb.walker.walkRequestOrigin_Requested::Data            0                       # Table walker requests started/completed, data/inst
system.cpu00.dtb.stage2_mmu.stage2_tlb.walker.walkRequestOrigin_Requested::Inst            0                       # Table walker requests started/completed, data/inst
system.cpu00.dtb.stage2_mmu.stage2_tlb.walker.walkRequestOrigin_Requested::total            0                       # Table walker requests started/completed, data/inst
system.cpu00.dtb.stage2_mmu.stage2_tlb.walker.walkRequestOrigin_Completed::Data            0                       # Table walker requests started/completed, data/inst
system.cpu00.dtb.stage2_mmu.stage2_tlb.walker.walkRequestOrigin_Completed::Inst            0                       # Table walker requests started/completed, data/inst
system.cpu00.dtb.stage2_mmu.stage2_tlb.walker.walkRequestOrigin_Completed::total            0                       # Table walker requests started/completed, data/inst
system.cpu00.dtb.stage2_mmu.stage2_tlb.walker.walkRequestOrigin::total            0                       # Table walker requests started/completed, data/inst
system.cpu00.dtb.stage2_mmu.stage2_tlb.walker.walks            0                       # Table walker walks requested
system.cpu00.dtb.stage2_mmu.stage2_tlb.write_accesses            0                       # DTB write accesses
system.cpu00.dtb.stage2_mmu.stage2_tlb.write_hits            0                       # DTB write hits
system.cpu00.dtb.stage2_mmu.stage2_tlb.write_misses            0                       # DTB write misses
system.cpu00.dtb.walker.walkRequestOrigin_Requested::Data            0                       # Table walker requests started/completed, data/inst
system.cpu00.dtb.walker.walkRequestOrigin_Requested::Inst            0                       # Table walker requests started/completed, data/inst
system.cpu00.dtb.walker.walkRequestOrigin_Requested::total            0                       # Table walker requests started/completed, data/inst
system.cpu00.dtb.walker.walkRequestOrigin_Completed::Data            0                       # Table walker requests started/completed, data/inst
system.cpu00.dtb.walker.walkRequestOrigin_Completed::Inst            0                       # Table walker requests started/completed, data/inst
system.cpu00.dtb.walker.walkRequestOrigin_Completed::total            0                       # Table walker requests started/completed, data/inst
system.cpu00.dtb.walker.walkRequestOrigin::total            0                       # Table walker requests started/completed, data/inst
system.cpu00.dtb.walker.walks                       0                       # Table walker walks requested
system.cpu00.dtb.write_accesses                     0                       # DTB write accesses
system.cpu00.dtb.write_hits                         0                       # DTB write hits
system.cpu00.dtb.write_misses                       0                       # DTB write misses
system.cpu00.idle_fraction                          0                       # Percentage of idle cycles
system.cpu00.itb.accesses                           0                       # DTB accesses
system.cpu00.itb.align_faults                       0                       # Number of TLB faults due to alignment restrictions
system.cpu00.itb.domain_faults                      0                       # Number of TLB faults due to domain restrictions
system.cpu00.itb.flush_entries                      0                       # Number of entries that have been flushed from TLB
system.cpu00.itb.flush_tlb                          0                       # Number of times complete TLB was flushed
system.cpu00.itb.flush_tlb_asid                     0                       # Number of times TLB was flushed by ASID
system.cpu00.itb.flush_tlb_mva                      0                       # Number of times TLB was flushed by MVA
system.cpu00.itb.flush_tlb_mva_asid                 0                       # Number of times TLB was flushed by MVA & ASID
system.cpu00.itb.hits                               0                       # DTB hits
system.cpu00.itb.inst_accesses                      0                       # ITB inst accesses
system.cpu00.itb.inst_hits                          0                       # ITB inst hits
system.cpu00.itb.inst_misses                        0                       # ITB inst misses
system.cpu00.itb.misses                             0                       # DTB misses
system.cpu00.itb.perms_faults                       0                       # Number of TLB faults due to permissions restrictions
system.cpu00.itb.prefetch_faults                    0                       # Number of TLB faults due to prefetch
system.cpu00.itb.read_accesses                      0                       # DTB read accesses
system.cpu00.itb.read_hits                          0                       # DTB read hits
system.cpu00.itb.read_misses                        0                       # DTB read misses
system.cpu00.itb.stage2_mmu.stage2_tlb.accesses            0                       # DTB accesses
system.cpu00.itb.stage2_mmu.stage2_tlb.align_faults            0                       # Number of TLB faults due to alignment restrictions
system.cpu00.itb.stage2_mmu.stage2_tlb.domain_faults            0                       # Number of TLB faults due to domain restrictions
system.cpu00.itb.stage2_mmu.stage2_tlb.flush_entries            0                       # Number of entries that have been flushed from TLB
system.cpu00.itb.stage2_mmu.stage2_tlb.flush_tlb            0                       # Number of times complete TLB was flushed
system.cpu00.itb.stage2_mmu.stage2_tlb.flush_tlb_asid            0                       # Number of times TLB was flushed by ASID
system.cpu00.itb.stage2_mmu.stage2_tlb.flush_tlb_mva            0                       # Number of times TLB was flushed by MVA
system.cpu00.itb.stage2_mmu.stage2_tlb.flush_tlb_mva_asid            0                       # Number of times TLB was flushed by MVA & ASID
system.cpu00.itb.stage2_mmu.stage2_tlb.hits            0                       # DTB hits
system.cpu00.itb.stage2_mmu.stage2_tlb.inst_accesses            0                       # ITB inst accesses
system.cpu00.itb.stage2_mmu.stage2_tlb.inst_hits            0                       # ITB inst hits
system.cpu00.itb.stage2_mmu.stage2_tlb.inst_misses            0                       # ITB inst misses
system.cpu00.itb.stage2_mmu.stage2_tlb.misses            0                       # DTB misses
system.cpu00.itb.stage2_mmu.stage2_tlb.perms_faults            0                       # Number of TLB faults due to permissions restrictions
system.cpu00.itb.stage2_mmu.stage2_tlb.prefetch_faults            0                       # Number of TLB faults due to prefetch
system.cpu00.itb.stage2_mmu.stage2_tlb.read_accesses            0                       # DTB read accesses
system.cpu00.itb.stage2_mmu.stage2_tlb.read_hits            0                       # DTB read hits
system.cpu00.itb.stage2_mmu.stage2_tlb.read_misses            0                       # DTB read misses
system.cpu00.itb.stage2_mmu.stage2_tlb.walker.walkRequestOrigin_Requested::Data            0                       # Table walker requests started/completed, data/inst
system.cpu00.itb.stage2_mmu.stage2_tlb.walker.walkRequestOrigin_Requested::Inst            0                       # Table walker requests started/completed, data/inst
system.cpu00.itb.stage2_mmu.stage2_tlb.walker.walkRequestOrigin_Requested::total            0                       # Table walker requests started/completed, data/inst
system.cpu00.itb.stage2_mmu.stage2_tlb.walker.walkRequestOrigin_Completed::Data            0                       # Table walker requests started/completed, data/inst
system.cpu00.itb.stage2_mmu.stage2_tlb.walker.walkRequestOrigin_Completed::Inst            0                       # Table walker requests started/completed, data/inst
system.cpu00.itb.stage2_mmu.stage2_tlb.walker.walkRequestOrigin_Completed::total            0                       # Table walker requests started/completed, data/inst
system.cpu00.itb.stage2_mmu.stage2_tlb.walker.walkRequestOrigin::total            0                       # Table walker requests started/completed, data/inst
system.cpu00.itb.stage2_mmu.stage2_tlb.walker.walks            0                       # Table walker walks requested
system.cpu00.itb.stage2_mmu.stage2_tlb.write_accesses            0                       # DTB write accesses
system.cpu00.itb.stage2_mmu.stage2_tlb.write_hits            0                       # DTB write hits
system.cpu00.itb.stage2_mmu.stage2_tlb.write_misses            0                       # DTB write misses
system.cpu00.itb.walker.walkRequestOrigin_Requested::Data            0                       # Table walker requests started/completed, data/inst
system.cpu00.itb.walker.walkRequestOrigin_Requested::Inst            0                       # Table walker requests started/completed, data/inst
system.cpu00.itb.walker.walkRequestOrigin_Requested::total            0                       # Table walker requests started/completed, data/inst
system.cpu00.itb.walker.walkRequestOrigin_Completed::Data            0                       # Table walker requests started/completed, data/inst
system.cpu00.itb.walker.walkRequestOrigin_Completed::Inst            0                       # Table walker requests started/completed, data/inst
system.cpu00.itb.walker.walkRequestOrigin_Completed::total            0                       # Table walker requests started/completed, data/inst
system.cpu00.itb.walker.walkRequestOrigin::total            0                       # Table walker requests started/completed, data/inst
system.cpu00.itb.walker.walks                       0                       # Table walker walks requested
system.cpu00.itb.write_accesses                     0                       # DTB write accesses
system.cpu00.itb.write_hits                         0                       # DTB write hits
system.cpu00.itb.write_misses                       0                       # DTB write misses
system.cpu00.not_idle_fraction                      1                       # Percentage of non-idle cycles
system.cpu00.numCycles                              0                       # number of cpu cycles simulated
system.cpu00.numWorkItemsCompleted                  0                       # number of work items this cpu completed
system.cpu00.numWorkItemsStarted                    0                       # number of work items this cpu started
system.cpu00.num_busy_cycles                        0                       # Number of busy cycles
system.cpu00.num_conditional_control_insts            0                       # number of instructions that are conditional controls
system.cpu00.num_fp_alu_accesses                    0                       # Number of float alu accesses
system.cpu00.num_fp_insts                           0                       # number of float instructions
system.cpu00.num_fp_register_reads                  0                       # number of times the floating registers were read
system.cpu00.num_fp_register_writes                 0                       # number of times the floating registers were written
system.cpu00.num_func_calls                         0                       # number of times a function call or return occured
system.cpu00.num_idle_cycles                        0                       # Number of idle cycles
system.cpu00.num_int_alu_accesses                   0                       # Number of integer alu accesses
system.cpu00.num_int_insts                          0                       # number of integer instructions
system.cpu00.num_int_register_reads                 0                       # number of times the integer registers were read
system.cpu00.num_int_register_writes                0                       # number of times the integer registers were written
system.cpu00.num_load_insts                         0                       # Number of load instructions
system.cpu00.num_mem_refs                           0                       # number of memory refs
system.cpu00.num_store_insts                        0                       # Number of store instructions
system.cpu00.num_vec_alu_accesses                   0                       # Number of vector alu accesses
system.cpu00.num_vec_insts                          0                       # number of vector instructions
system.cpu00.num_vec_register_reads                 0                       # number of times the vector registers were read
system.cpu00.num_vec_register_writes                0                       # number of times the vector registers were written
system.cpu00.op_class::No_OpClass                   0                       # Class of executed instruction
system.cpu00.op_class::IntAlu                       0                       # Class of executed instruction
system.cpu00.op_class::IntMult                      0                       # Class of executed instruction
system.cpu00.op_class::IntDiv                       0                       # Class of executed instruction
system.cpu00.op_class::FloatAdd                     0                       # Class of executed instruction
system.cpu00.op_class::FloatCmp                     0                       # Class of executed instruction
system.cpu00.op_class::FloatCvt                     0                       # Class of executed instruction
system.cpu00.op_class::FloatMult                    0                       # Class of executed instruction
system.cpu00.op_class::FloatMultAcc                 0                       # Class of executed instruction
system.cpu00.op_class::FloatDiv                     0                       # Class of executed instruction
system.cpu00.op_class::FloatMisc                    0                       # Class of executed instruction
system.cpu00.op_class::FloatSqrt                    0                       # Class of executed instruction
system.cpu00.op_class::SimdAdd                      0                       # Class of executed instruction
system.cpu00.op_class::SimdAddAcc                   0                       # Class of executed instruction
system.cpu00.op_class::SimdAlu                      0                       # Class of executed instruction
system.cpu00.op_class::SimdCmp                      0                       # Class of executed instruction
system.cpu00.op_class::SimdCvt                      0                       # Class of executed instruction
system.cpu00.op_class::SimdMisc                     0                       # Class of executed instruction
system.cpu00.op_class::SimdMult                     0                       # Class of executed instruction
system.cpu00.op_class::SimdMultAcc                  0                       # Class of executed instruction
system.cpu00.op_class::SimdShift                    0                       # Class of executed instruction
system.cpu00.op_class::SimdShiftAcc                 0                       # Class of executed instruction
system.cpu00.op_class::SimdDiv                      0                       # Class of executed instruction
system.cpu00.op_class::SimdSqrt                     0                       # Class of executed instruction
system.cpu00.op_class::SimdFloatAdd                 0                       # Class of executed instruction
system.cpu00.op_class::SimdFloatAlu                 0                       # Class of executed instruction
system.cpu00.op_class::SimdFloatCmp                 0                       # Class of executed instruction
system.cpu00.op_class::SimdFloatCvt                 0                       # Class of executed instruction
system.cpu00.op_class::SimdFloatDiv                 0                       # Class of executed instruction
system.cpu00.op_class::SimdFloatMisc                0                       # Class of executed instruction
system.cpu00.op_class::SimdFloatMult                0                       # Class of executed instruction
system.cpu00.op_class::SimdFloatMultAcc             0                       # Class of executed instruction
system.cpu00.op_class::SimdFloatSqrt                0                       # Class of executed instruction
system.cpu00.op_class::SimdReduceAdd                0                       # Class of executed instruction
system.cpu00.op_class::SimdReduceAlu                0                       # Class of executed instruction
system.cpu00.op_class::SimdReduceCmp                0                       # Class of executed instruction
system.cpu00.op_class::SimdFloatReduceAdd            0                       # Class of executed instruction
system.cpu00.op_class::SimdFloatReduceCmp            0                       # Class of executed instruction
system.cpu00.op_class::SimdAes                      0                       # Class of executed instruction
system.cpu00.op_class::SimdAesMix                   0                       # Class of executed instruction
system.cpu00.op_class::SimdSha1Hash                 0                       # Class of executed instruction
system.cpu00.op_class::SimdSha1Hash2                0                       # Class of executed instruction
system.cpu00.op_class::SimdSha256Hash               0                       # Class of executed instruction
system.cpu00.op_class::SimdSha256Hash2              0                       # Class of executed instruction
system.cpu00.op_class::SimdShaSigma2                0                       # Class of executed instruction
system.cpu00.op_class::SimdShaSigma3                0                       # Class of executed instruction
system.cpu00.op_class::SimdPredAlu                  0                       # Class of executed instruction
system.cpu00.op_class::MemRead                      0                       # Class of executed instruction
system.cpu00.op_class::MemWrite                     0                       # Class of executed instruction
system.cpu00.op_class::FloatMemRead                 0                       # Class of executed instruction
system.cpu00.op_class::FloatMemWrite                0                       # Class of executed instruction
system.cpu00.op_class::IprAccess                    0                       # Class of executed instruction
system.cpu00.op_class::InstPrefetch                 0                       # Class of executed instruction
system.cpu00.op_class::total                        0                       # Class of executed instruction
system.cpu00.workload.numSyscalls                  82                       # Number of system calls
system.cpu01.committedInsts                         0                       # Number of instructions committed
system.cpu01.committedOps                           0                       # Number of ops (including micro ops) committed
system.cpu01.dtb.accesses                           0                       # DTB accesses
system.cpu01.dtb.align_faults                       0                       # Number of TLB faults due to alignment restrictions
system.cpu01.dtb.domain_faults                      0                       # Number of TLB faults due to domain restrictions
system.cpu01.dtb.flush_entries                      0                       # Number of entries that have been flushed from TLB
system.cpu01.dtb.flush_tlb                          0                       # Number of times complete TLB was flushed
system.cpu01.dtb.flush_tlb_asid                     0                       # Number of times TLB was flushed by ASID
system.cpu01.dtb.flush_tlb_mva                      0                       # Number of times TLB was flushed by MVA
system.cpu01.dtb.flush_tlb_mva_asid                 0                       # Number of times TLB was flushed by MVA & ASID
system.cpu01.dtb.hits                               0                       # DTB hits
system.cpu01.dtb.inst_accesses                      0                       # ITB inst accesses
system.cpu01.dtb.inst_hits                          0                       # ITB inst hits
system.cpu01.dtb.inst_misses                        0                       # ITB inst misses
system.cpu01.dtb.misses                             0                       # DTB misses
system.cpu01.dtb.perms_faults                       0                       # Number of TLB faults due to permissions restrictions
system.cpu01.dtb.prefetch_faults                    0                       # Number of TLB faults due to prefetch
system.cpu01.dtb.read_accesses                      0                       # DTB read accesses
system.cpu01.dtb.read_hits                          0                       # DTB read hits
system.cpu01.dtb.read_misses                        0                       # DTB read misses
system.cpu01.dtb.stage2_mmu.stage2_tlb.accesses            0                       # DTB accesses
system.cpu01.dtb.stage2_mmu.stage2_tlb.align_faults            0                       # Number of TLB faults due to alignment restrictions
system.cpu01.dtb.stage2_mmu.stage2_tlb.domain_faults            0                       # Number of TLB faults due to domain restrictions
system.cpu01.dtb.stage2_mmu.stage2_tlb.flush_entries            0                       # Number of entries that have been flushed from TLB
system.cpu01.dtb.stage2_mmu.stage2_tlb.flush_tlb            0                       # Number of times complete TLB was flushed
system.cpu01.dtb.stage2_mmu.stage2_tlb.flush_tlb_asid            0                       # Number of times TLB was flushed by ASID
system.cpu01.dtb.stage2_mmu.stage2_tlb.flush_tlb_mva            0                       # Number of times TLB was flushed by MVA
system.cpu01.dtb.stage2_mmu.stage2_tlb.flush_tlb_mva_asid            0                       # Number of times TLB was flushed by MVA & ASID
system.cpu01.dtb.stage2_mmu.stage2_tlb.hits            0                       # DTB hits
system.cpu01.dtb.stage2_mmu.stage2_tlb.inst_accesses            0                       # ITB inst accesses
system.cpu01.dtb.stage2_mmu.stage2_tlb.inst_hits            0                       # ITB inst hits
system.cpu01.dtb.stage2_mmu.stage2_tlb.inst_misses            0                       # ITB inst misses
system.cpu01.dtb.stage2_mmu.stage2_tlb.misses            0                       # DTB misses
system.cpu01.dtb.stage2_mmu.stage2_tlb.perms_faults            0                       # Number of TLB faults due to permissions restrictions
system.cpu01.dtb.stage2_mmu.stage2_tlb.prefetch_faults            0                       # Number of TLB faults due to prefetch
system.cpu01.dtb.stage2_mmu.stage2_tlb.read_accesses            0                       # DTB read accesses
system.cpu01.dtb.stage2_mmu.stage2_tlb.read_hits            0                       # DTB read hits
system.cpu01.dtb.stage2_mmu.stage2_tlb.read_misses            0                       # DTB read misses
system.cpu01.dtb.stage2_mmu.stage2_tlb.walker.walkRequestOrigin_Requested::Data            0                       # Table walker requests started/completed, data/inst
system.cpu01.dtb.stage2_mmu.stage2_tlb.walker.walkRequestOrigin_Requested::Inst            0                       # Table walker requests started/completed, data/inst
system.cpu01.dtb.stage2_mmu.stage2_tlb.walker.walkRequestOrigin_Requested::total            0                       # Table walker requests started/completed, data/inst
system.cpu01.dtb.stage2_mmu.stage2_tlb.walker.walkRequestOrigin_Completed::Data            0                       # Table walker requests started/completed, data/inst
system.cpu01.dtb.stage2_mmu.stage2_tlb.walker.walkRequestOrigin_Completed::Inst            0                       # Table walker requests started/completed, data/inst
system.cpu01.dtb.stage2_mmu.stage2_tlb.walker.walkRequestOrigin_Completed::total            0                       # Table walker requests started/completed, data/inst
system.cpu01.dtb.stage2_mmu.stage2_tlb.walker.walkRequestOrigin::total            0                       # Table walker requests started/completed, data/inst
system.cpu01.dtb.stage2_mmu.stage2_tlb.walker.walks            0                       # Table walker walks requested
system.cpu01.dtb.stage2_mmu.stage2_tlb.write_accesses            0                       # DTB write accesses
system.cpu01.dtb.stage2_mmu.stage2_tlb.write_hits            0                       # DTB write hits
system.cpu01.dtb.stage2_mmu.stage2_tlb.write_misses            0                       # DTB write misses
system.cpu01.dtb.walker.walkRequestOrigin_Requested::Data            0                       # Table walker requests started/completed, data/inst
system.cpu01.dtb.walker.walkRequestOrigin_Requested::Inst            0                       # Table walker requests started/completed, data/inst
system.cpu01.dtb.walker.walkRequestOrigin_Requested::total            0                       # Table walker requests started/completed, data/inst
system.cpu01.dtb.walker.walkRequestOrigin_Completed::Data            0                       # Table walker requests started/completed, data/inst
system.cpu01.dtb.walker.walkRequestOrigin_Completed::Inst            0                       # Table walker requests started/completed, data/inst
system.cpu01.dtb.walker.walkRequestOrigin_Completed::total            0                       # Table walker requests started/completed, data/inst
system.cpu01.dtb.walker.walkRequestOrigin::total            0                       # Table walker requests started/completed, data/inst
system.cpu01.dtb.walker.walks                       0                       # Table walker walks requested
system.cpu01.dtb.write_accesses                     0                       # DTB write accesses
system.cpu01.dtb.write_hits                         0                       # DTB write hits
system.cpu01.dtb.write_misses                       0                       # DTB write misses
system.cpu01.idle_fraction                          0                       # Percentage of idle cycles
system.cpu01.itb.accesses                           0                       # DTB accesses
system.cpu01.itb.align_faults                       0                       # Number of TLB faults due to alignment restrictions
system.cpu01.itb.domain_faults                      0                       # Number of TLB faults due to domain restrictions
system.cpu01.itb.flush_entries                      0                       # Number of entries that have been flushed from TLB
system.cpu01.itb.flush_tlb                          0                       # Number of times complete TLB was flushed
system.cpu01.itb.flush_tlb_asid                     0                       # Number of times TLB was flushed by ASID
system.cpu01.itb.flush_tlb_mva                      0                       # Number of times TLB was flushed by MVA
system.cpu01.itb.flush_tlb_mva_asid                 0                       # Number of times TLB was flushed by MVA & ASID
system.cpu01.itb.hits                               0                       # DTB hits
system.cpu01.itb.inst_accesses                      0                       # ITB inst accesses
system.cpu01.itb.inst_hits                          0                       # ITB inst hits
system.cpu01.itb.inst_misses                        0                       # ITB inst misses
system.cpu01.itb.misses                             0                       # DTB misses
system.cpu01.itb.perms_faults                       0                       # Number of TLB faults due to permissions restrictions
system.cpu01.itb.prefetch_faults                    0                       # Number of TLB faults due to prefetch
system.cpu01.itb.read_accesses                      0                       # DTB read accesses
system.cpu01.itb.read_hits                          0                       # DTB read hits
system.cpu01.itb.read_misses                        0                       # DTB read misses
system.cpu01.itb.stage2_mmu.stage2_tlb.accesses            0                       # DTB accesses
system.cpu01.itb.stage2_mmu.stage2_tlb.align_faults            0                       # Number of TLB faults due to alignment restrictions
system.cpu01.itb.stage2_mmu.stage2_tlb.domain_faults            0                       # Number of TLB faults due to domain restrictions
system.cpu01.itb.stage2_mmu.stage2_tlb.flush_entries            0                       # Number of entries that have been flushed from TLB
system.cpu01.itb.stage2_mmu.stage2_tlb.flush_tlb            0                       # Number of times complete TLB was flushed
system.cpu01.itb.stage2_mmu.stage2_tlb.flush_tlb_asid            0                       # Number of times TLB was flushed by ASID
system.cpu01.itb.stage2_mmu.stage2_tlb.flush_tlb_mva            0                       # Number of times TLB was flushed by MVA
system.cpu01.itb.stage2_mmu.stage2_tlb.flush_tlb_mva_asid            0                       # Number of times TLB was flushed by MVA & ASID
system.cpu01.itb.stage2_mmu.stage2_tlb.hits            0                       # DTB hits
system.cpu01.itb.stage2_mmu.stage2_tlb.inst_accesses            0                       # ITB inst accesses
system.cpu01.itb.stage2_mmu.stage2_tlb.inst_hits            0                       # ITB inst hits
system.cpu01.itb.stage2_mmu.stage2_tlb.inst_misses            0                       # ITB inst misses
system.cpu01.itb.stage2_mmu.stage2_tlb.misses            0                       # DTB misses
system.cpu01.itb.stage2_mmu.stage2_tlb.perms_faults            0                       # Number of TLB faults due to permissions restrictions
system.cpu01.itb.stage2_mmu.stage2_tlb.prefetch_faults            0                       # Number of TLB faults due to prefetch
system.cpu01.itb.stage2_mmu.stage2_tlb.read_accesses            0                       # DTB read accesses
system.cpu01.itb.stage2_mmu.stage2_tlb.read_hits            0                       # DTB read hits
system.cpu01.itb.stage2_mmu.stage2_tlb.read_misses            0                       # DTB read misses
system.cpu01.itb.stage2_mmu.stage2_tlb.walker.walkRequestOrigin_Requested::Data            0                       # Table walker requests started/completed, data/inst
system.cpu01.itb.stage2_mmu.stage2_tlb.walker.walkRequestOrigin_Requested::Inst            0                       # Table walker requests started/completed, data/inst
system.cpu01.itb.stage2_mmu.stage2_tlb.walker.walkRequestOrigin_Requested::total            0                       # Table walker requests started/completed, data/inst
system.cpu01.itb.stage2_mmu.stage2_tlb.walker.walkRequestOrigin_Completed::Data            0                       # Table walker requests started/completed, data/inst
system.cpu01.itb.stage2_mmu.stage2_tlb.walker.walkRequestOrigin_Completed::Inst            0                       # Table walker requests started/completed, data/inst
system.cpu01.itb.stage2_mmu.stage2_tlb.walker.walkRequestOrigin_Completed::total            0                       # Table walker requests started/completed, data/inst
system.cpu01.itb.stage2_mmu.stage2_tlb.walker.walkRequestOrigin::total            0                       # Table walker requests started/completed, data/inst
system.cpu01.itb.stage2_mmu.stage2_tlb.walker.walks            0                       # Table walker walks requested
system.cpu01.itb.stage2_mmu.stage2_tlb.write_accesses            0                       # DTB write accesses
system.cpu01.itb.stage2_mmu.stage2_tlb.write_hits            0                       # DTB write hits
system.cpu01.itb.stage2_mmu.stage2_tlb.write_misses            0                       # DTB write misses
system.cpu01.itb.walker.walkRequestOrigin_Requested::Data            0                       # Table walker requests started/completed, data/inst
system.cpu01.itb.walker.walkRequestOrigin_Requested::Inst            0                       # Table walker requests started/completed, data/inst
system.cpu01.itb.walker.walkRequestOrigin_Requested::total            0                       # Table walker requests started/completed, data/inst
system.cpu01.itb.walker.walkRequestOrigin_Completed::Data            0                       # Table walker requests started/completed, data/inst
system.cpu01.itb.walker.walkRequestOrigin_Completed::Inst            0                       # Table walker requests started/completed, data/inst
system.cpu01.itb.walker.walkRequestOrigin_Completed::total            0                       # Table walker requests started/completed, data/inst
system.cpu01.itb.walker.walkRequestOrigin::total            0                       # Table walker requests started/completed, data/inst
system.cpu01.itb.walker.walks                       0                       # Table walker walks requested
system.cpu01.itb.write_accesses                     0                       # DTB write accesses
system.cpu01.itb.write_hits                         0                       # DTB write hits
system.cpu01.itb.write_misses                       0                       # DTB write misses
system.cpu01.not_idle_fraction                      1                       # Percentage of non-idle cycles
system.cpu01.numCycles                              0                       # number of cpu cycles simulated
system.cpu01.numWorkItemsCompleted                  0                       # number of work items this cpu completed
system.cpu01.numWorkItemsStarted                    0                       # number of work items this cpu started
system.cpu01.num_busy_cycles                        0                       # Number of busy cycles
system.cpu01.num_conditional_control_insts            0                       # number of instructions that are conditional controls
system.cpu01.num_fp_alu_accesses                    0                       # Number of float alu accesses
system.cpu01.num_fp_insts                           0                       # number of float instructions
system.cpu01.num_fp_register_reads                  0                       # number of times the floating registers were read
system.cpu01.num_fp_register_writes                 0                       # number of times the floating registers were written
system.cpu01.num_func_calls                         0                       # number of times a function call or return occured
system.cpu01.num_idle_cycles                        0                       # Number of idle cycles
system.cpu01.num_int_alu_accesses                   0                       # Number of integer alu accesses
system.cpu01.num_int_insts                          0                       # number of integer instructions
system.cpu01.num_int_register_reads                 0                       # number of times the integer registers were read
system.cpu01.num_int_register_writes                0                       # number of times the integer registers were written
system.cpu01.num_load_insts                         0                       # Number of load instructions
system.cpu01.num_mem_refs                           0                       # number of memory refs
system.cpu01.num_store_insts                        0                       # Number of store instructions
system.cpu01.num_vec_alu_accesses                   0                       # Number of vector alu accesses
system.cpu01.num_vec_insts                          0                       # number of vector instructions
system.cpu01.num_vec_register_reads                 0                       # number of times the vector registers were read
system.cpu01.num_vec_register_writes                0                       # number of times the vector registers were written
system.cpu01.op_class::No_OpClass                   0                       # Class of executed instruction
system.cpu01.op_class::IntAlu                       0                       # Class of executed instruction
system.cpu01.op_class::IntMult                      0                       # Class of executed instruction
system.cpu01.op_class::IntDiv                       0                       # Class of executed instruction
system.cpu01.op_class::FloatAdd                     0                       # Class of executed instruction
system.cpu01.op_class::FloatCmp                     0                       # Class of executed instruction
system.cpu01.op_class::FloatCvt                     0                       # Class of executed instruction
system.cpu01.op_class::FloatMult                    0                       # Class of executed instruction
system.cpu01.op_class::FloatMultAcc                 0                       # Class of executed instruction
system.cpu01.op_class::FloatDiv                     0                       # Class of executed instruction
system.cpu01.op_class::FloatMisc                    0                       # Class of executed instruction
system.cpu01.op_class::FloatSqrt                    0                       # Class of executed instruction
system.cpu01.op_class::SimdAdd                      0                       # Class of executed instruction
system.cpu01.op_class::SimdAddAcc                   0                       # Class of executed instruction
system.cpu01.op_class::SimdAlu                      0                       # Class of executed instruction
system.cpu01.op_class::SimdCmp                      0                       # Class of executed instruction
system.cpu01.op_class::SimdCvt                      0                       # Class of executed instruction
system.cpu01.op_class::SimdMisc                     0                       # Class of executed instruction
system.cpu01.op_class::SimdMult                     0                       # Class of executed instruction
system.cpu01.op_class::SimdMultAcc                  0                       # Class of executed instruction
system.cpu01.op_class::SimdShift                    0                       # Class of executed instruction
system.cpu01.op_class::SimdShiftAcc                 0                       # Class of executed instruction
system.cpu01.op_class::SimdDiv                      0                       # Class of executed instruction
system.cpu01.op_class::SimdSqrt                     0                       # Class of executed instruction
system.cpu01.op_class::SimdFloatAdd                 0                       # Class of executed instruction
system.cpu01.op_class::SimdFloatAlu                 0                       # Class of executed instruction
system.cpu01.op_class::SimdFloatCmp                 0                       # Class of executed instruction
system.cpu01.op_class::SimdFloatCvt                 0                       # Class of executed instruction
system.cpu01.op_class::SimdFloatDiv                 0                       # Class of executed instruction
system.cpu01.op_class::SimdFloatMisc                0                       # Class of executed instruction
system.cpu01.op_class::SimdFloatMult                0                       # Class of executed instruction
system.cpu01.op_class::SimdFloatMultAcc             0                       # Class of executed instruction
system.cpu01.op_class::SimdFloatSqrt                0                       # Class of executed instruction
system.cpu01.op_class::SimdReduceAdd                0                       # Class of executed instruction
system.cpu01.op_class::SimdReduceAlu                0                       # Class of executed instruction
system.cpu01.op_class::SimdReduceCmp                0                       # Class of executed instruction
system.cpu01.op_class::SimdFloatReduceAdd            0                       # Class of executed instruction
system.cpu01.op_class::SimdFloatReduceCmp            0                       # Class of executed instruction
system.cpu01.op_class::SimdAes                      0                       # Class of executed instruction
system.cpu01.op_class::SimdAesMix                   0                       # Class of executed instruction
system.cpu01.op_class::SimdSha1Hash                 0                       # Class of executed instruction
system.cpu01.op_class::SimdSha1Hash2                0                       # Class of executed instruction
system.cpu01.op_class::SimdSha256Hash               0                       # Class of executed instruction
system.cpu01.op_class::SimdSha256Hash2              0                       # Class of executed instruction
system.cpu01.op_class::SimdShaSigma2                0                       # Class of executed instruction
system.cpu01.op_class::SimdShaSigma3                0                       # Class of executed instruction
system.cpu01.op_class::SimdPredAlu                  0                       # Class of executed instruction
system.cpu01.op_class::MemRead                      0                       # Class of executed instruction
system.cpu01.op_class::MemWrite                     0                       # Class of executed instruction
system.cpu01.op_class::FloatMemRead                 0                       # Class of executed instruction
system.cpu01.op_class::FloatMemWrite                0                       # Class of executed instruction
system.cpu01.op_class::IprAccess                    0                       # Class of executed instruction
system.cpu01.op_class::InstPrefetch                 0                       # Class of executed instruction
system.cpu01.op_class::total                        0                       # Class of executed instruction
system.cpu01.workload.numSyscalls               21125                       # Number of system calls
system.cpu02.committedInsts                         0                       # Number of instructions committed
system.cpu02.committedOps                           0                       # Number of ops (including micro ops) committed
system.cpu02.dtb.accesses                           0                       # DTB accesses
system.cpu02.dtb.align_faults                       0                       # Number of TLB faults due to alignment restrictions
system.cpu02.dtb.domain_faults                      0                       # Number of TLB faults due to domain restrictions
system.cpu02.dtb.flush_entries                      0                       # Number of entries that have been flushed from TLB
system.cpu02.dtb.flush_tlb                          0                       # Number of times complete TLB was flushed
system.cpu02.dtb.flush_tlb_asid                     0                       # Number of times TLB was flushed by ASID
system.cpu02.dtb.flush_tlb_mva                      0                       # Number of times TLB was flushed by MVA
system.cpu02.dtb.flush_tlb_mva_asid                 0                       # Number of times TLB was flushed by MVA & ASID
system.cpu02.dtb.hits                               0                       # DTB hits
system.cpu02.dtb.inst_accesses                      0                       # ITB inst accesses
system.cpu02.dtb.inst_hits                          0                       # ITB inst hits
system.cpu02.dtb.inst_misses                        0                       # ITB inst misses
system.cpu02.dtb.misses                             0                       # DTB misses
system.cpu02.dtb.perms_faults                       0                       # Number of TLB faults due to permissions restrictions
system.cpu02.dtb.prefetch_faults                    0                       # Number of TLB faults due to prefetch
system.cpu02.dtb.read_accesses                      0                       # DTB read accesses
system.cpu02.dtb.read_hits                          0                       # DTB read hits
system.cpu02.dtb.read_misses                        0                       # DTB read misses
system.cpu02.dtb.stage2_mmu.stage2_tlb.accesses            0                       # DTB accesses
system.cpu02.dtb.stage2_mmu.stage2_tlb.align_faults            0                       # Number of TLB faults due to alignment restrictions
system.cpu02.dtb.stage2_mmu.stage2_tlb.domain_faults            0                       # Number of TLB faults due to domain restrictions
system.cpu02.dtb.stage2_mmu.stage2_tlb.flush_entries            0                       # Number of entries that have been flushed from TLB
system.cpu02.dtb.stage2_mmu.stage2_tlb.flush_tlb            0                       # Number of times complete TLB was flushed
system.cpu02.dtb.stage2_mmu.stage2_tlb.flush_tlb_asid            0                       # Number of times TLB was flushed by ASID
system.cpu02.dtb.stage2_mmu.stage2_tlb.flush_tlb_mva            0                       # Number of times TLB was flushed by MVA
system.cpu02.dtb.stage2_mmu.stage2_tlb.flush_tlb_mva_asid            0                       # Number of times TLB was flushed by MVA & ASID
system.cpu02.dtb.stage2_mmu.stage2_tlb.hits            0                       # DTB hits
system.cpu02.dtb.stage2_mmu.stage2_tlb.inst_accesses            0                       # ITB inst accesses
system.cpu02.dtb.stage2_mmu.stage2_tlb.inst_hits            0                       # ITB inst hits
system.cpu02.dtb.stage2_mmu.stage2_tlb.inst_misses            0                       # ITB inst misses
system.cpu02.dtb.stage2_mmu.stage2_tlb.misses            0                       # DTB misses
system.cpu02.dtb.stage2_mmu.stage2_tlb.perms_faults            0                       # Number of TLB faults due to permissions restrictions
system.cpu02.dtb.stage2_mmu.stage2_tlb.prefetch_faults            0                       # Number of TLB faults due to prefetch
system.cpu02.dtb.stage2_mmu.stage2_tlb.read_accesses            0                       # DTB read accesses
system.cpu02.dtb.stage2_mmu.stage2_tlb.read_hits            0                       # DTB read hits
system.cpu02.dtb.stage2_mmu.stage2_tlb.read_misses            0                       # DTB read misses
system.cpu02.dtb.stage2_mmu.stage2_tlb.walker.walkRequestOrigin_Requested::Data            0                       # Table walker requests started/completed, data/inst
system.cpu02.dtb.stage2_mmu.stage2_tlb.walker.walkRequestOrigin_Requested::Inst            0                       # Table walker requests started/completed, data/inst
system.cpu02.dtb.stage2_mmu.stage2_tlb.walker.walkRequestOrigin_Requested::total            0                       # Table walker requests started/completed, data/inst
system.cpu02.dtb.stage2_mmu.stage2_tlb.walker.walkRequestOrigin_Completed::Data            0                       # Table walker requests started/completed, data/inst
system.cpu02.dtb.stage2_mmu.stage2_tlb.walker.walkRequestOrigin_Completed::Inst            0                       # Table walker requests started/completed, data/inst
system.cpu02.dtb.stage2_mmu.stage2_tlb.walker.walkRequestOrigin_Completed::total            0                       # Table walker requests started/completed, data/inst
system.cpu02.dtb.stage2_mmu.stage2_tlb.walker.walkRequestOrigin::total            0                       # Table walker requests started/completed, data/inst
system.cpu02.dtb.stage2_mmu.stage2_tlb.walker.walks            0                       # Table walker walks requested
system.cpu02.dtb.stage2_mmu.stage2_tlb.write_accesses            0                       # DTB write accesses
system.cpu02.dtb.stage2_mmu.stage2_tlb.write_hits            0                       # DTB write hits
system.cpu02.dtb.stage2_mmu.stage2_tlb.write_misses            0                       # DTB write misses
system.cpu02.dtb.walker.walkRequestOrigin_Requested::Data            0                       # Table walker requests started/completed, data/inst
system.cpu02.dtb.walker.walkRequestOrigin_Requested::Inst            0                       # Table walker requests started/completed, data/inst
system.cpu02.dtb.walker.walkRequestOrigin_Requested::total            0                       # Table walker requests started/completed, data/inst
system.cpu02.dtb.walker.walkRequestOrigin_Completed::Data            0                       # Table walker requests started/completed, data/inst
system.cpu02.dtb.walker.walkRequestOrigin_Completed::Inst            0                       # Table walker requests started/completed, data/inst
system.cpu02.dtb.walker.walkRequestOrigin_Completed::total            0                       # Table walker requests started/completed, data/inst
system.cpu02.dtb.walker.walkRequestOrigin::total            0                       # Table walker requests started/completed, data/inst
system.cpu02.dtb.walker.walks                       0                       # Table walker walks requested
system.cpu02.dtb.write_accesses                     0                       # DTB write accesses
system.cpu02.dtb.write_hits                         0                       # DTB write hits
system.cpu02.dtb.write_misses                       0                       # DTB write misses
system.cpu02.idle_fraction                          0                       # Percentage of idle cycles
system.cpu02.itb.accesses                           0                       # DTB accesses
system.cpu02.itb.align_faults                       0                       # Number of TLB faults due to alignment restrictions
system.cpu02.itb.domain_faults                      0                       # Number of TLB faults due to domain restrictions
system.cpu02.itb.flush_entries                      0                       # Number of entries that have been flushed from TLB
system.cpu02.itb.flush_tlb                          0                       # Number of times complete TLB was flushed
system.cpu02.itb.flush_tlb_asid                     0                       # Number of times TLB was flushed by ASID
system.cpu02.itb.flush_tlb_mva                      0                       # Number of times TLB was flushed by MVA
system.cpu02.itb.flush_tlb_mva_asid                 0                       # Number of times TLB was flushed by MVA & ASID
system.cpu02.itb.hits                               0                       # DTB hits
system.cpu02.itb.inst_accesses                      0                       # ITB inst accesses
system.cpu02.itb.inst_hits                          0                       # ITB inst hits
system.cpu02.itb.inst_misses                        0                       # ITB inst misses
system.cpu02.itb.misses                             0                       # DTB misses
system.cpu02.itb.perms_faults                       0                       # Number of TLB faults due to permissions restrictions
system.cpu02.itb.prefetch_faults                    0                       # Number of TLB faults due to prefetch
system.cpu02.itb.read_accesses                      0                       # DTB read accesses
system.cpu02.itb.read_hits                          0                       # DTB read hits
system.cpu02.itb.read_misses                        0                       # DTB read misses
system.cpu02.itb.stage2_mmu.stage2_tlb.accesses            0                       # DTB accesses
system.cpu02.itb.stage2_mmu.stage2_tlb.align_faults            0                       # Number of TLB faults due to alignment restrictions
system.cpu02.itb.stage2_mmu.stage2_tlb.domain_faults            0                       # Number of TLB faults due to domain restrictions
system.cpu02.itb.stage2_mmu.stage2_tlb.flush_entries            0                       # Number of entries that have been flushed from TLB
system.cpu02.itb.stage2_mmu.stage2_tlb.flush_tlb            0                       # Number of times complete TLB was flushed
system.cpu02.itb.stage2_mmu.stage2_tlb.flush_tlb_asid            0                       # Number of times TLB was flushed by ASID
system.cpu02.itb.stage2_mmu.stage2_tlb.flush_tlb_mva            0                       # Number of times TLB was flushed by MVA
system.cpu02.itb.stage2_mmu.stage2_tlb.flush_tlb_mva_asid            0                       # Number of times TLB was flushed by MVA & ASID
system.cpu02.itb.stage2_mmu.stage2_tlb.hits            0                       # DTB hits
system.cpu02.itb.stage2_mmu.stage2_tlb.inst_accesses            0                       # ITB inst accesses
system.cpu02.itb.stage2_mmu.stage2_tlb.inst_hits            0                       # ITB inst hits
system.cpu02.itb.stage2_mmu.stage2_tlb.inst_misses            0                       # ITB inst misses
system.cpu02.itb.stage2_mmu.stage2_tlb.misses            0                       # DTB misses
system.cpu02.itb.stage2_mmu.stage2_tlb.perms_faults            0                       # Number of TLB faults due to permissions restrictions
system.cpu02.itb.stage2_mmu.stage2_tlb.prefetch_faults            0                       # Number of TLB faults due to prefetch
system.cpu02.itb.stage2_mmu.stage2_tlb.read_accesses            0                       # DTB read accesses
system.cpu02.itb.stage2_mmu.stage2_tlb.read_hits            0                       # DTB read hits
system.cpu02.itb.stage2_mmu.stage2_tlb.read_misses            0                       # DTB read misses
system.cpu02.itb.stage2_mmu.stage2_tlb.walker.walkRequestOrigin_Requested::Data            0                       # Table walker requests started/completed, data/inst
system.cpu02.itb.stage2_mmu.stage2_tlb.walker.walkRequestOrigin_Requested::Inst            0                       # Table walker requests started/completed, data/inst
system.cpu02.itb.stage2_mmu.stage2_tlb.walker.walkRequestOrigin_Requested::total            0                       # Table walker requests started/completed, data/inst
system.cpu02.itb.stage2_mmu.stage2_tlb.walker.walkRequestOrigin_Completed::Data            0                       # Table walker requests started/completed, data/inst
system.cpu02.itb.stage2_mmu.stage2_tlb.walker.walkRequestOrigin_Completed::Inst            0                       # Table walker requests started/completed, data/inst
system.cpu02.itb.stage2_mmu.stage2_tlb.walker.walkRequestOrigin_Completed::total            0                       # Table walker requests started/completed, data/inst
system.cpu02.itb.stage2_mmu.stage2_tlb.walker.walkRequestOrigin::total            0                       # Table walker requests started/completed, data/inst
system.cpu02.itb.stage2_mmu.stage2_tlb.walker.walks            0                       # Table walker walks requested
system.cpu02.itb.stage2_mmu.stage2_tlb.write_accesses            0                       # DTB write accesses
system.cpu02.itb.stage2_mmu.stage2_tlb.write_hits            0                       # DTB write hits
system.cpu02.itb.stage2_mmu.stage2_tlb.write_misses            0                       # DTB write misses
system.cpu02.itb.walker.walkRequestOrigin_Requested::Data            0                       # Table walker requests started/completed, data/inst
system.cpu02.itb.walker.walkRequestOrigin_Requested::Inst            0                       # Table walker requests started/completed, data/inst
system.cpu02.itb.walker.walkRequestOrigin_Requested::total            0                       # Table walker requests started/completed, data/inst
system.cpu02.itb.walker.walkRequestOrigin_Completed::Data            0                       # Table walker requests started/completed, data/inst
system.cpu02.itb.walker.walkRequestOrigin_Completed::Inst            0                       # Table walker requests started/completed, data/inst
system.cpu02.itb.walker.walkRequestOrigin_Completed::total            0                       # Table walker requests started/completed, data/inst
system.cpu02.itb.walker.walkRequestOrigin::total            0                       # Table walker requests started/completed, data/inst
system.cpu02.itb.walker.walks                       0                       # Table walker walks requested
system.cpu02.itb.write_accesses                     0                       # DTB write accesses
system.cpu02.itb.write_hits                         0                       # DTB write hits
system.cpu02.itb.write_misses                       0                       # DTB write misses
system.cpu02.not_idle_fraction                      1                       # Percentage of non-idle cycles
system.cpu02.numCycles                              0                       # number of cpu cycles simulated
system.cpu02.numWorkItemsCompleted                  0                       # number of work items this cpu completed
system.cpu02.numWorkItemsStarted                    0                       # number of work items this cpu started
system.cpu02.num_busy_cycles                        0                       # Number of busy cycles
system.cpu02.num_conditional_control_insts            0                       # number of instructions that are conditional controls
system.cpu02.num_fp_alu_accesses                    0                       # Number of float alu accesses
system.cpu02.num_fp_insts                           0                       # number of float instructions
system.cpu02.num_fp_register_reads                  0                       # number of times the floating registers were read
system.cpu02.num_fp_register_writes                 0                       # number of times the floating registers were written
system.cpu02.num_func_calls                         0                       # number of times a function call or return occured
system.cpu02.num_idle_cycles                        0                       # Number of idle cycles
system.cpu02.num_int_alu_accesses                   0                       # Number of integer alu accesses
system.cpu02.num_int_insts                          0                       # number of integer instructions
system.cpu02.num_int_register_reads                 0                       # number of times the integer registers were read
system.cpu02.num_int_register_writes                0                       # number of times the integer registers were written
system.cpu02.num_load_insts                         0                       # Number of load instructions
system.cpu02.num_mem_refs                           0                       # number of memory refs
system.cpu02.num_store_insts                        0                       # Number of store instructions
system.cpu02.num_vec_alu_accesses                   0                       # Number of vector alu accesses
system.cpu02.num_vec_insts                          0                       # number of vector instructions
system.cpu02.num_vec_register_reads                 0                       # number of times the vector registers were read
system.cpu02.num_vec_register_writes                0                       # number of times the vector registers were written
system.cpu02.op_class::No_OpClass                   0                       # Class of executed instruction
system.cpu02.op_class::IntAlu                       0                       # Class of executed instruction
system.cpu02.op_class::IntMult                      0                       # Class of executed instruction
system.cpu02.op_class::IntDiv                       0                       # Class of executed instruction
system.cpu02.op_class::FloatAdd                     0                       # Class of executed instruction
system.cpu02.op_class::FloatCmp                     0                       # Class of executed instruction
system.cpu02.op_class::FloatCvt                     0                       # Class of executed instruction
system.cpu02.op_class::FloatMult                    0                       # Class of executed instruction
system.cpu02.op_class::FloatMultAcc                 0                       # Class of executed instruction
system.cpu02.op_class::FloatDiv                     0                       # Class of executed instruction
system.cpu02.op_class::FloatMisc                    0                       # Class of executed instruction
system.cpu02.op_class::FloatSqrt                    0                       # Class of executed instruction
system.cpu02.op_class::SimdAdd                      0                       # Class of executed instruction
system.cpu02.op_class::SimdAddAcc                   0                       # Class of executed instruction
system.cpu02.op_class::SimdAlu                      0                       # Class of executed instruction
system.cpu02.op_class::SimdCmp                      0                       # Class of executed instruction
system.cpu02.op_class::SimdCvt                      0                       # Class of executed instruction
system.cpu02.op_class::SimdMisc                     0                       # Class of executed instruction
system.cpu02.op_class::SimdMult                     0                       # Class of executed instruction
system.cpu02.op_class::SimdMultAcc                  0                       # Class of executed instruction
system.cpu02.op_class::SimdShift                    0                       # Class of executed instruction
system.cpu02.op_class::SimdShiftAcc                 0                       # Class of executed instruction
system.cpu02.op_class::SimdDiv                      0                       # Class of executed instruction
system.cpu02.op_class::SimdSqrt                     0                       # Class of executed instruction
system.cpu02.op_class::SimdFloatAdd                 0                       # Class of executed instruction
system.cpu02.op_class::SimdFloatAlu                 0                       # Class of executed instruction
system.cpu02.op_class::SimdFloatCmp                 0                       # Class of executed instruction
system.cpu02.op_class::SimdFloatCvt                 0                       # Class of executed instruction
system.cpu02.op_class::SimdFloatDiv                 0                       # Class of executed instruction
system.cpu02.op_class::SimdFloatMisc                0                       # Class of executed instruction
system.cpu02.op_class::SimdFloatMult                0                       # Class of executed instruction
system.cpu02.op_class::SimdFloatMultAcc             0                       # Class of executed instruction
system.cpu02.op_class::SimdFloatSqrt                0                       # Class of executed instruction
system.cpu02.op_class::SimdReduceAdd                0                       # Class of executed instruction
system.cpu02.op_class::SimdReduceAlu                0                       # Class of executed instruction
system.cpu02.op_class::SimdReduceCmp                0                       # Class of executed instruction
system.cpu02.op_class::SimdFloatReduceAdd            0                       # Class of executed instruction
system.cpu02.op_class::SimdFloatReduceCmp            0                       # Class of executed instruction
system.cpu02.op_class::SimdAes                      0                       # Class of executed instruction
system.cpu02.op_class::SimdAesMix                   0                       # Class of executed instruction
system.cpu02.op_class::SimdSha1Hash                 0                       # Class of executed instruction
system.cpu02.op_class::SimdSha1Hash2                0                       # Class of executed instruction
system.cpu02.op_class::SimdSha256Hash               0                       # Class of executed instruction
system.cpu02.op_class::SimdSha256Hash2              0                       # Class of executed instruction
system.cpu02.op_class::SimdShaSigma2                0                       # Class of executed instruction
system.cpu02.op_class::SimdShaSigma3                0                       # Class of executed instruction
system.cpu02.op_class::SimdPredAlu                  0                       # Class of executed instruction
system.cpu02.op_class::MemRead                      0                       # Class of executed instruction
system.cpu02.op_class::MemWrite                     0                       # Class of executed instruction
system.cpu02.op_class::FloatMemRead                 0                       # Class of executed instruction
system.cpu02.op_class::FloatMemWrite                0                       # Class of executed instruction
system.cpu02.op_class::IprAccess                    0                       # Class of executed instruction
system.cpu02.op_class::InstPrefetch                 0                       # Class of executed instruction
system.cpu02.op_class::total                        0                       # Class of executed instruction
system.cpu03.committedInsts                         0                       # Number of instructions committed
system.cpu03.committedOps                           0                       # Number of ops (including micro ops) committed
system.cpu03.dtb.accesses                           0                       # DTB accesses
system.cpu03.dtb.align_faults                       0                       # Number of TLB faults due to alignment restrictions
system.cpu03.dtb.domain_faults                      0                       # Number of TLB faults due to domain restrictions
system.cpu03.dtb.flush_entries                      0                       # Number of entries that have been flushed from TLB
system.cpu03.dtb.flush_tlb                          0                       # Number of times complete TLB was flushed
system.cpu03.dtb.flush_tlb_asid                     0                       # Number of times TLB was flushed by ASID
system.cpu03.dtb.flush_tlb_mva                      0                       # Number of times TLB was flushed by MVA
system.cpu03.dtb.flush_tlb_mva_asid                 0                       # Number of times TLB was flushed by MVA & ASID
system.cpu03.dtb.hits                               0                       # DTB hits
system.cpu03.dtb.inst_accesses                      0                       # ITB inst accesses
system.cpu03.dtb.inst_hits                          0                       # ITB inst hits
system.cpu03.dtb.inst_misses                        0                       # ITB inst misses
system.cpu03.dtb.misses                             0                       # DTB misses
system.cpu03.dtb.perms_faults                       0                       # Number of TLB faults due to permissions restrictions
system.cpu03.dtb.prefetch_faults                    0                       # Number of TLB faults due to prefetch
system.cpu03.dtb.read_accesses                      0                       # DTB read accesses
system.cpu03.dtb.read_hits                          0                       # DTB read hits
system.cpu03.dtb.read_misses                        0                       # DTB read misses
system.cpu03.dtb.stage2_mmu.stage2_tlb.accesses            0                       # DTB accesses
system.cpu03.dtb.stage2_mmu.stage2_tlb.align_faults            0                       # Number of TLB faults due to alignment restrictions
system.cpu03.dtb.stage2_mmu.stage2_tlb.domain_faults            0                       # Number of TLB faults due to domain restrictions
system.cpu03.dtb.stage2_mmu.stage2_tlb.flush_entries            0                       # Number of entries that have been flushed from TLB
system.cpu03.dtb.stage2_mmu.stage2_tlb.flush_tlb            0                       # Number of times complete TLB was flushed
system.cpu03.dtb.stage2_mmu.stage2_tlb.flush_tlb_asid            0                       # Number of times TLB was flushed by ASID
system.cpu03.dtb.stage2_mmu.stage2_tlb.flush_tlb_mva            0                       # Number of times TLB was flushed by MVA
system.cpu03.dtb.stage2_mmu.stage2_tlb.flush_tlb_mva_asid            0                       # Number of times TLB was flushed by MVA & ASID
system.cpu03.dtb.stage2_mmu.stage2_tlb.hits            0                       # DTB hits
system.cpu03.dtb.stage2_mmu.stage2_tlb.inst_accesses            0                       # ITB inst accesses
system.cpu03.dtb.stage2_mmu.stage2_tlb.inst_hits            0                       # ITB inst hits
system.cpu03.dtb.stage2_mmu.stage2_tlb.inst_misses            0                       # ITB inst misses
system.cpu03.dtb.stage2_mmu.stage2_tlb.misses            0                       # DTB misses
system.cpu03.dtb.stage2_mmu.stage2_tlb.perms_faults            0                       # Number of TLB faults due to permissions restrictions
system.cpu03.dtb.stage2_mmu.stage2_tlb.prefetch_faults            0                       # Number of TLB faults due to prefetch
system.cpu03.dtb.stage2_mmu.stage2_tlb.read_accesses            0                       # DTB read accesses
system.cpu03.dtb.stage2_mmu.stage2_tlb.read_hits            0                       # DTB read hits
system.cpu03.dtb.stage2_mmu.stage2_tlb.read_misses            0                       # DTB read misses
system.cpu03.dtb.stage2_mmu.stage2_tlb.walker.walkRequestOrigin_Requested::Data            0                       # Table walker requests started/completed, data/inst
system.cpu03.dtb.stage2_mmu.stage2_tlb.walker.walkRequestOrigin_Requested::Inst            0                       # Table walker requests started/completed, data/inst
system.cpu03.dtb.stage2_mmu.stage2_tlb.walker.walkRequestOrigin_Requested::total            0                       # Table walker requests started/completed, data/inst
system.cpu03.dtb.stage2_mmu.stage2_tlb.walker.walkRequestOrigin_Completed::Data            0                       # Table walker requests started/completed, data/inst
system.cpu03.dtb.stage2_mmu.stage2_tlb.walker.walkRequestOrigin_Completed::Inst            0                       # Table walker requests started/completed, data/inst
system.cpu03.dtb.stage2_mmu.stage2_tlb.walker.walkRequestOrigin_Completed::total            0                       # Table walker requests started/completed, data/inst
system.cpu03.dtb.stage2_mmu.stage2_tlb.walker.walkRequestOrigin::total            0                       # Table walker requests started/completed, data/inst
system.cpu03.dtb.stage2_mmu.stage2_tlb.walker.walks            0                       # Table walker walks requested
system.cpu03.dtb.stage2_mmu.stage2_tlb.write_accesses            0                       # DTB write accesses
system.cpu03.dtb.stage2_mmu.stage2_tlb.write_hits            0                       # DTB write hits
system.cpu03.dtb.stage2_mmu.stage2_tlb.write_misses            0                       # DTB write misses
system.cpu03.dtb.walker.walkRequestOrigin_Requested::Data            0                       # Table walker requests started/completed, data/inst
system.cpu03.dtb.walker.walkRequestOrigin_Requested::Inst            0                       # Table walker requests started/completed, data/inst
system.cpu03.dtb.walker.walkRequestOrigin_Requested::total            0                       # Table walker requests started/completed, data/inst
system.cpu03.dtb.walker.walkRequestOrigin_Completed::Data            0                       # Table walker requests started/completed, data/inst
system.cpu03.dtb.walker.walkRequestOrigin_Completed::Inst            0                       # Table walker requests started/completed, data/inst
system.cpu03.dtb.walker.walkRequestOrigin_Completed::total            0                       # Table walker requests started/completed, data/inst
system.cpu03.dtb.walker.walkRequestOrigin::total            0                       # Table walker requests started/completed, data/inst
system.cpu03.dtb.walker.walks                       0                       # Table walker walks requested
system.cpu03.dtb.write_accesses                     0                       # DTB write accesses
system.cpu03.dtb.write_hits                         0                       # DTB write hits
system.cpu03.dtb.write_misses                       0                       # DTB write misses
system.cpu03.idle_fraction                          0                       # Percentage of idle cycles
system.cpu03.itb.accesses                           0                       # DTB accesses
system.cpu03.itb.align_faults                       0                       # Number of TLB faults due to alignment restrictions
system.cpu03.itb.domain_faults                      0                       # Number of TLB faults due to domain restrictions
system.cpu03.itb.flush_entries                      0                       # Number of entries that have been flushed from TLB
system.cpu03.itb.flush_tlb                          0                       # Number of times complete TLB was flushed
system.cpu03.itb.flush_tlb_asid                     0                       # Number of times TLB was flushed by ASID
system.cpu03.itb.flush_tlb_mva                      0                       # Number of times TLB was flushed by MVA
system.cpu03.itb.flush_tlb_mva_asid                 0                       # Number of times TLB was flushed by MVA & ASID
system.cpu03.itb.hits                               0                       # DTB hits
system.cpu03.itb.inst_accesses                      0                       # ITB inst accesses
system.cpu03.itb.inst_hits                          0                       # ITB inst hits
system.cpu03.itb.inst_misses                        0                       # ITB inst misses
system.cpu03.itb.misses                             0                       # DTB misses
system.cpu03.itb.perms_faults                       0                       # Number of TLB faults due to permissions restrictions
system.cpu03.itb.prefetch_faults                    0                       # Number of TLB faults due to prefetch
system.cpu03.itb.read_accesses                      0                       # DTB read accesses
system.cpu03.itb.read_hits                          0                       # DTB read hits
system.cpu03.itb.read_misses                        0                       # DTB read misses
system.cpu03.itb.stage2_mmu.stage2_tlb.accesses            0                       # DTB accesses
[...]
system.cpu5.dcache.LoadLockedReq_avg_mshr_miss_latency::total 27507.029872                       # average LoadLockedReq mshr miss latency
system.cpu5.dcache.StoreCondReq_hits::.cpu05.data      3114594                       # number of StoreCondReq hits
system.cpu5.dcache.StoreCondReq_hits::.switch_cpus05.data       510881                       # number of StoreCondReq hits
system.cpu5.dcache.StoreCondReq_hits::total      3625475                       # number of StoreCondReq hits
system.cpu5.dcache.StoreCondReq_misses::.cpu05.data        56069                       # number of StoreCondReq misses
system.cpu5.dcache.StoreCondReq_misses::.switch_cpus05.data        31164                       # number of StoreCondReq misses
system.cpu5.dcache.StoreCondReq_misses::total        87233                       # number of StoreCondReq misses
system.cpu5.dcache.StoreCondReq_miss_latency::.switch_cpus05.data    589515736                       # number of StoreCondReq miss cycles
system.cpu5.dcache.StoreCondReq_miss_latency::total    589515736                       # number of StoreCondReq miss cycles
system.cpu5.dcache.StoreCondReq_accesses::.cpu05.data      3170663                       # number of StoreCondReq accesses(hits+misses)
system.cpu5.dcache.StoreCondReq_accesses::.switch_cpus05.data       542045                       # number of StoreCondReq accesses(hits+misses)
system.cpu5.dcache.StoreCondReq_accesses::total      3712708                       # number of StoreCondReq accesses(hits+misses)
system.cpu5.dcache.StoreCondReq_miss_rate::.cpu05.data     0.017684                       # miss rate for StoreCondReq accesses
system.cpu5.dcache.StoreCondReq_miss_rate::.switch_cpus05.data     0.057493                       # miss rate for StoreCondReq accesses
system.cpu5.dcache.StoreCondReq_miss_rate::total     0.023496                       # miss rate for StoreCondReq accesses
system.cpu5.dcache.StoreCondReq_avg_miss_latency::.switch_cpus05.data 18916.561930                       # average StoreCondReq miss latency
system.cpu5.dcache.StoreCondReq_avg_miss_latency::total  6757.944081                       # average StoreCondReq miss latency
system.cpu5.dcache.StoreCondReq_mshr_misses::.switch_cpus05.data        26878                       # number of StoreCondReq MSHR misses
system.cpu5.dcache.StoreCondReq_mshr_misses::total        26878                       # number of StoreCondReq MSHR misses
system.cpu5.dcache.StoreCondReq_mshr_miss_latency::.switch_cpus05.data    467809879                       # number of StoreCondReq MSHR miss cycles
system.cpu5.dcache.StoreCondReq_mshr_miss_latency::total    467809879                       # number of StoreCondReq MSHR miss cycles
system.cpu5.dcache.StoreCondReq_mshr_miss_rate::.switch_cpus05.data     0.049586                       # mshr miss rate for StoreCondReq accesses
system.cpu5.dcache.StoreCondReq_mshr_miss_rate::total     0.007239                       # mshr miss rate for StoreCondReq accesses
system.cpu5.dcache.StoreCondReq_avg_mshr_miss_latency::.switch_cpus05.data 17404.936342                       # average StoreCondReq mshr miss latency
system.cpu5.dcache.StoreCondReq_avg_mshr_miss_latency::total 17404.936342                       # average StoreCondReq mshr miss latency
system.cpu5.dcache.StoreCondFailReq_miss_latency::.switch_cpus05.data     35536042                       # number of StoreCondFailReq miss cycles
system.cpu5.dcache.StoreCondFailReq_miss_latency::total     35536042                       # number of StoreCondFailReq miss cycles
system.cpu5.dcache.StoreCondFailReq_avg_miss_latency::.switch_cpus05.data          inf                       # average StoreCondFailReq miss latency
system.cpu5.dcache.StoreCondFailReq_avg_miss_latency::total          inf                       # average StoreCondFailReq miss latency
system.cpu5.dcache.StoreCondFailReq_mshr_miss_latency::.switch_cpus05.data     31556756                       # number of StoreCondFailReq MSHR miss cycles
system.cpu5.dcache.StoreCondFailReq_mshr_miss_latency::total     31556756                       # number of StoreCondFailReq MSHR miss cycles
system.cpu5.dcache.StoreCondFailReq_avg_mshr_miss_latency::.switch_cpus05.data          inf                       # average StoreCondFailReq mshr miss latency
system.cpu5.dcache.StoreCondFailReq_avg_mshr_miss_latency::total          inf                       # average StoreCondFailReq mshr miss latency
system.cpu5.dcache.tags.pwrStateResidencyTicks::UNDEFINED 1261813275684                       # Cumulative time (in ticks) in various power states
system.cpu5.dcache.tags.tagsinuse           49.123332                       # Cycle average of tags in use
system.cpu5.dcache.tags.total_refs          205771998                       # Total number of references to valid blocks.
system.cpu5.dcache.tags.sampled_refs          9240703                       # Sample count of references to valid blocks.
system.cpu5.dcache.tags.avg_refs            22.268003                       # Average number of references to valid blocks.
system.cpu5.dcache.tags.warmup_cycle     206934722116                       # Cycle when the warmup percentage was hit.
system.cpu5.dcache.tags.occ_blocks::.cpu05.data    34.707475                       # Average occupied blocks per requestor
system.cpu5.dcache.tags.occ_blocks::.switch_cpus05.data    14.415857                       # Average occupied blocks per requestor
system.cpu5.dcache.tags.occ_percent::.cpu05.data     0.542304                       # Average percentage of cache occupancy
system.cpu5.dcache.tags.occ_percent::.switch_cpus05.data     0.225248                       # Average percentage of cache occupancy
system.cpu5.dcache.tags.occ_percent::total     0.767552                       # Average percentage of cache occupancy
system.cpu5.dcache.tags.occ_task_id_blocks::1024           64                       # Occupied blocks per task id
system.cpu5.dcache.tags.age_task_id_blocks_1024::0           32                       # Occupied blocks per task id
system.cpu5.dcache.tags.age_task_id_blocks_1024::1           32                       # Occupied blocks per task id
system.cpu5.dcache.tags.occ_task_id_percent::1024            1                       # Percentage of cache occupancy per task id
system.cpu5.dcache.tags.tag_accesses        217394844                       # Number of tag accesses
system.cpu5.dcache.tags.data_accesses       217394844                       # Number of data accesses
system.cpu2.numPwrStateTransitions                164                       # Number of power state transitions
system.cpu2.pwrStateClkGateDist::samples           81                       # Distribution of time spent in the clock gated state
system.cpu2.pwrStateClkGateDist::mean    201659.753086                       # Distribution of time spent in the clock gated state
system.cpu2.pwrStateClkGateDist::stdev   238243.944383                       # Distribution of time spent in the clock gated state
system.cpu2.pwrStateClkGateDist::1000-5e+10           81    100.00%    100.00% # Distribution of time spent in the clock gated state
system.cpu2.pwrStateClkGateDist::min_value         4028                       # Distribution of time spent in the clock gated state
system.cpu2.pwrStateClkGateDist::max_value       858445                       # Distribution of time spent in the clock gated state
system.cpu2.pwrStateClkGateDist::total             81                       # Distribution of time spent in the clock gated state
system.cpu2.pwrStateResidencyTicks::ON   957940158722                       # Cumulative time (in ticks) in various power states
system.cpu2.pwrStateResidencyTicks::CLK_GATED     16334440                       # Cumulative time (in ticks) in various power states
system.cpu2.pwrStateResidencyTicks::OFF  303856782522                       # Cumulative time (in ticks) in various power states
system.cpu2.icache.pwrStateResidencyTicks::UNDEFINED 1261813275684                       # Cumulative time (in ticks) in various power states
system.cpu2.icache.demand_hits::.cpu02.inst    350928090                       # number of demand (read+write) hits
system.cpu2.icache.demand_hits::.switch_cpus02.inst     21020260                       # number of demand (read+write) hits
system.cpu2.icache.demand_hits::total       371948350                       # number of demand (read+write) hits
system.cpu2.icache.overall_hits::.cpu02.inst    350928090                       # number of overall hits
system.cpu2.icache.overall_hits::.switch_cpus02.inst     21020260                       # number of overall hits
system.cpu2.icache.overall_hits::total      371948350                       # number of overall hits
system.cpu2.icache.demand_misses::.cpu02.inst          217                       # number of demand (read+write) misses
system.cpu2.icache.demand_misses::.switch_cpus02.inst           68                       # number of demand (read+write) misses
system.cpu2.icache.demand_misses::total           285                       # number of demand (read+write) misses
system.cpu2.icache.overall_misses::.cpu02.inst          217                       # number of overall misses
system.cpu2.icache.overall_misses::.switch_cpus02.inst           68                       # number of overall misses
system.cpu2.icache.overall_misses::total          285                       # number of overall misses
system.cpu2.icache.demand_miss_latency::.switch_cpus02.inst     10240924                       # number of demand (read+write) miss cycles
system.cpu2.icache.demand_miss_latency::total     10240924                       # number of demand (read+write) miss cycles
system.cpu2.icache.overall_miss_latency::.switch_cpus02.inst     10240924                       # number of overall miss cycles
system.cpu2.icache.overall_miss_latency::total     10240924                       # number of overall miss cycles
system.cpu2.icache.demand_accesses::.cpu02.inst    350928307                       # number of demand (read+write) accesses
system.cpu2.icache.demand_accesses::.switch_cpus02.inst     21020328                       # number of demand (read+write) accesses
system.cpu2.icache.demand_accesses::total    371948635                       # number of demand (read+write) accesses
system.cpu2.icache.overall_accesses::.cpu02.inst    350928307                       # number of overall (read+write) accesses
system.cpu2.icache.overall_accesses::.switch_cpus02.inst     21020328                       # number of overall (read+write) accesses
system.cpu2.icache.overall_accesses::total    371948635                       # number of overall (read+write) accesses
system.cpu2.icache.demand_miss_rate::.cpu02.inst     0.000001                       # miss rate for demand accesses
system.cpu2.icache.demand_miss_rate::.switch_cpus02.inst     0.000003                       # miss rate for demand accesses
system.cpu2.icache.demand_miss_rate::total     0.000001                       # miss rate for demand accesses
system.cpu2.icache.overall_miss_rate::.cpu02.inst     0.000001                       # miss rate for overall accesses
system.cpu2.icache.overall_miss_rate::.switch_cpus02.inst     0.000003                       # miss rate for overall accesses
system.cpu2.icache.overall_miss_rate::total     0.000001                       # miss rate for overall accesses
system.cpu2.icache.demand_avg_miss_latency::.switch_cpus02.inst 150601.823529                       # average overall miss latency
system.cpu2.icache.demand_avg_miss_latency::total 35933.066667                       # average overall miss latency
system.cpu2.icache.overall_avg_miss_latency::.switch_cpus02.inst 150601.823529                       # average overall miss latency
system.cpu2.icache.overall_avg_miss_latency::total 35933.066667                       # average overall miss latency
system.cpu2.icache.blocked_cycles::no_mshrs           96                       # number of cycles access was blocked
system.cpu2.icache.blocked_cycles::no_targets            0                       # number of cycles access was blocked
system.cpu2.icache.blocked::no_mshrs                4                       # number of cycles access was blocked
system.cpu2.icache.blocked::no_targets              0                       # number of cycles access was blocked
system.cpu2.icache.avg_blocked_cycles::no_mshrs           24                       # average number of cycles each access was blocked
system.cpu2.icache.avg_blocked_cycles::no_targets          nan                       # average number of cycles each access was blocked
system.cpu2.icache.demand_mshr_hits::.switch_cpus02.inst            7                       # number of demand (read+write) MSHR hits
system.cpu2.icache.demand_mshr_hits::total            7                       # number of demand (read+write) MSHR hits
system.cpu2.icache.overall_mshr_hits::.switch_cpus02.inst            7                       # number of overall MSHR hits
system.cpu2.icache.overall_mshr_hits::total            7                       # number of overall MSHR hits
system.cpu2.icache.demand_mshr_misses::.switch_cpus02.inst           61                       # number of demand (read+write) MSHR misses
system.cpu2.icache.demand_mshr_misses::total           61                       # number of demand (read+write) MSHR misses
system.cpu2.icache.overall_mshr_misses::.switch_cpus02.inst           61                       # number of overall MSHR misses
system.cpu2.icache.overall_mshr_misses::total           61                       # number of overall MSHR misses
system.cpu2.icache.demand_mshr_miss_latency::.switch_cpus02.inst      9372038                       # number of demand (read+write) MSHR miss cycles
system.cpu2.icache.demand_mshr_miss_latency::total      9372038                       # number of demand (read+write) MSHR miss cycles
system.cpu2.icache.overall_mshr_miss_latency::.switch_cpus02.inst      9372038                       # number of overall MSHR miss cycles
system.cpu2.icache.overall_mshr_miss_latency::total      9372038                       # number of overall MSHR miss cycles
system.cpu2.icache.demand_mshr_miss_rate::.switch_cpus02.inst     0.000003                       # mshr miss rate for demand accesses
system.cpu2.icache.demand_mshr_miss_rate::total     0.000000                       # mshr miss rate for demand accesses
system.cpu2.icache.overall_mshr_miss_rate::.switch_cpus02.inst     0.000003                       # mshr miss rate for overall accesses
system.cpu2.icache.overall_mshr_miss_rate::total     0.000000                       # mshr miss rate for overall accesses
system.cpu2.icache.demand_avg_mshr_miss_latency::.switch_cpus02.inst 153639.967213                       # average overall mshr miss latency
system.cpu2.icache.demand_avg_mshr_miss_latency::total 153639.967213                       # average overall mshr miss latency
system.cpu2.icache.overall_avg_mshr_miss_latency::.switch_cpus02.inst 153639.967213                       # average overall mshr miss latency
system.cpu2.icache.overall_avg_mshr_miss_latency::total 153639.967213                       # average overall mshr miss latency
system.cpu2.icache.replacements                     0                       # number of replacements
system.cpu2.icache.ReadReq_hits::.cpu02.inst    350928090                       # number of ReadReq hits
system.cpu2.icache.ReadReq_hits::.switch_cpus02.inst     21020260                       # number of ReadReq hits
system.cpu2.icache.ReadReq_hits::total      371948350                       # number of ReadReq hits
system.cpu2.icache.ReadReq_misses::.cpu02.inst          217                       # number of ReadReq misses
system.cpu2.icache.ReadReq_misses::.switch_cpus02.inst           68                       # number of ReadReq misses
system.cpu2.icache.ReadReq_misses::total          285                       # number of ReadReq misses
system.cpu2.icache.ReadReq_miss_latency::.switch_cpus02.inst     10240924                       # number of ReadReq miss cycles
system.cpu2.icache.ReadReq_miss_latency::total     10240924                       # number of ReadReq miss cycles
system.cpu2.icache.ReadReq_accesses::.cpu02.inst    350928307                       # number of ReadReq accesses(hits+misses)
system.cpu2.icache.ReadReq_accesses::.switch_cpus02.inst     21020328                       # number of ReadReq accesses(hits+misses)
system.cpu2.icache.ReadReq_accesses::total    371948635                       # number of ReadReq accesses(hits+misses)
system.cpu2.icache.ReadReq_miss_rate::.cpu02.inst     0.000001                       # miss rate for ReadReq accesses
system.cpu2.icache.ReadReq_miss_rate::.switch_cpus02.inst     0.000003                       # miss rate for ReadReq accesses
system.cpu2.icache.ReadReq_miss_rate::total     0.000001                       # miss rate for ReadReq accesses
system.cpu2.icache.ReadReq_avg_miss_latency::.switch_cpus02.inst 150601.823529                       # average ReadReq miss latency
system.cpu2.icache.ReadReq_avg_miss_latency::total 35933.066667                       # average ReadReq miss latency
system.cpu2.icache.ReadReq_mshr_hits::.switch_cpus02.inst            7                       # number of ReadReq MSHR hits
system.cpu2.icache.ReadReq_mshr_hits::total            7                       # number of ReadReq MSHR hits
system.cpu2.icache.ReadReq_mshr_misses::.switch_cpus02.inst           61                       # number of ReadReq MSHR misses
system.cpu2.icache.ReadReq_mshr_misses::total           61                       # number of ReadReq MSHR misses
system.cpu2.icache.ReadReq_mshr_miss_latency::.switch_cpus02.inst      9372038                       # number of ReadReq MSHR miss cycles
system.cpu2.icache.ReadReq_mshr_miss_latency::total      9372038                       # number of ReadReq MSHR miss cycles
system.cpu2.icache.ReadReq_mshr_miss_rate::.switch_cpus02.inst     0.000003                       # mshr miss rate for ReadReq accesses
system.cpu2.icache.ReadReq_mshr_miss_rate::total     0.000000                       # mshr miss rate for ReadReq accesses
system.cpu2.icache.ReadReq_avg_mshr_miss_latency::.switch_cpus02.inst 153639.967213                       # average ReadReq mshr miss latency
system.cpu2.icache.ReadReq_avg_mshr_miss_latency::total 153639.967213                       # average ReadReq mshr miss latency
system.cpu2.icache.tags.pwrStateResidencyTicks::UNDEFINED 1261813275684                       # Cumulative time (in ticks) in various power states
system.cpu2.icache.tags.tagsinuse          186.571898                       # Cycle average of tags in use
system.cpu2.icache.tags.total_refs          371948628                       # Total number of references to valid blocks.
system.cpu2.icache.tags.sampled_refs              278                       # Sample count of references to valid blocks.
system.cpu2.icache.tags.avg_refs         1337944.705036                       # Average number of references to valid blocks.
system.cpu2.icache.tags.warmup_cycle     206928497906                       # Cycle when the warmup percentage was hit.
system.cpu2.icache.tags.occ_blocks::.cpu02.inst   172.237560                       # Average occupied blocks per requestor
system.cpu2.icache.tags.occ_blocks::.switch_cpus02.inst    14.334338                       # Average occupied blocks per requestor
system.cpu2.icache.tags.occ_percent::.cpu02.inst     0.276022                       # Average percentage of cache occupancy
system.cpu2.icache.tags.occ_percent::.switch_cpus02.inst     0.022972                       # Average percentage of cache occupancy
system.cpu2.icache.tags.occ_percent::total     0.298993                       # Average percentage of cache occupancy
system.cpu2.icache.tags.occ_task_id_blocks::1024          278                       # Occupied blocks per task id
