
---------- Begin Simulation Statistics ----------
sim_seconds                                  0.104238                       # Number of seconds simulated
sim_ticks                                104237547963                       # Number of ticks simulated
final_tick                               633875265273                       # Number of ticks from beginning of simulation (restored from checkpoints and never reset)
sim_freq                                 1000000000000                       # Frequency of simulated ticks
host_inst_rate                                 127184                       # Simulator instruction rate (inst/s)
host_op_rate                                   160797                       # Simulator op (including micro ops) rate (op/s)
host_tick_rate                                6019315                       # Simulator tick rate (ticks/s)
host_mem_usage                               16890676                       # Number of bytes of host memory used
host_seconds                                 17317.18                       # Real time elapsed on the host
sim_insts                                  2202461044                       # Number of instructions simulated
sim_ops                                    2784546242                       # Number of ops (including micro ops) simulated
system.physmem.bytes_read::switch_cpus0.inst         1280                       # Number of bytes read from this memory
system.physmem.bytes_read::switch_cpus0.data      2414848                       # Number of bytes read from this memory
system.physmem.bytes_read::switch_cpus1.inst         1664                       # Number of bytes read from this memory
system.physmem.bytes_read::switch_cpus1.data      1222912                       # Number of bytes read from this memory
system.physmem.bytes_read::total              3640704                       # Number of bytes read from this memory
system.physmem.bytes_inst_read::switch_cpus0.inst         1280                       # Number of instructions bytes read from this memory
system.physmem.bytes_inst_read::switch_cpus1.inst         1664                       # Number of instructions bytes read from this memory
system.physmem.bytes_inst_read::total            2944                       # Number of instructions bytes read from this memory
system.physmem.bytes_written::writebacks      1348224                       # Number of bytes written to this memory
system.physmem.bytes_written::total           1348224                       # Number of bytes written to this memory
system.physmem.num_reads::switch_cpus0.inst           10                       # Number of read requests responded to by this memory
system.physmem.num_reads::switch_cpus0.data        18866                       # Number of read requests responded to by this memory
system.physmem.num_reads::switch_cpus1.inst           13                       # Number of read requests responded to by this memory
system.physmem.num_reads::switch_cpus1.data         9554                       # Number of read requests responded to by this memory
system.physmem.num_reads::total                 28443                       # Number of read requests responded to by this memory
system.physmem.num_writes::writebacks           10533                       # Number of write requests responded to by this memory
system.physmem.num_writes::functional               0                       # Number of write requests responded to by this memory
system.physmem.num_writes::interrupt                0                       # Number of write requests responded to by this memory
system.physmem.num_writes::switch_cpus0.dtb.walker            0                       # Number of write requests responded to by this memory
system.physmem.num_writes::switch_cpus0.itb.walker            0                       # Number of write requests responded to by this memory
system.physmem.num_writes::switch_cpus0.inst            0                       # Number of write requests responded to by this memory
system.physmem.num_writes::switch_cpus0.data            0                       # Number of write requests responded to by this memory
system.physmem.num_writes::switch_cpus1.dtb.walker            0                       # Number of write requests responded to by this memory
system.physmem.num_writes::switch_cpus1.itb.walker            0                       # Number of write requests responded to by this memory
system.physmem.num_writes::switch_cpus1.inst            0                       # Number of write requests responded to by this memory
system.physmem.num_writes::switch_cpus1.data            0                       # Number of write requests responded to by this memory
system.physmem.num_writes::cpu0.dtb.walker            0                       # Number of write requests responded to by this memory
system.physmem.num_writes::cpu0.itb.walker            0                       # Number of write requests responded to by this memory
system.physmem.num_writes::cpu0.inst                0                       # Number of write requests responded to by this memory
system.physmem.num_writes::cpu0.data                0                       # Number of write requests responded to by this memory
system.physmem.num_writes::cpu1.dtb.walker            0                       # Number of write requests responded to by this memory
system.physmem.num_writes::cpu1.itb.walker            0                       # Number of write requests responded to by this memory
system.physmem.num_writes::cpu1.inst                0                       # Number of write requests responded to by this memory
system.physmem.num_writes::cpu1.data                0                       # Number of write requests responded to by this memory
system.physmem.num_writes::total                10533                       # Number of write requests responded to by this memory
system.physmem.bw_read::switch_cpus0.inst        12280                       # Total read bandwidth from this memory (bytes/s)
system.physmem.bw_read::switch_cpus0.data     23166777                       # Total read bandwidth from this memory (bytes/s)
system.physmem.bw_read::switch_cpus1.inst        15964                       # Total read bandwidth from this memory (bytes/s)
system.physmem.bw_read::switch_cpus1.data     11731972                       # Total read bandwidth from this memory (bytes/s)
system.physmem.bw_read::total                34926992                       # Total read bandwidth from this memory (bytes/s)
system.physmem.bw_inst_read::switch_cpus0.inst        12280                       # Instruction read bandwidth from this memory (bytes/s)
system.physmem.bw_inst_read::switch_cpus1.inst        15964                       # Instruction read bandwidth from this memory (bytes/s)
system.physmem.bw_inst_read::total              28243                       # Instruction read bandwidth from this memory (bytes/s)
system.physmem.bw_write::writebacks          12934149                       # Write bandwidth from this memory (bytes/s)
system.physmem.bw_write::total               12934149                       # Write bandwidth from this memory (bytes/s)
system.physmem.bw_total::writebacks          12934149                       # Total bandwidth to/from this memory (bytes/s)
system.physmem.bw_total::switch_cpus0.inst        12280                       # Total bandwidth to/from this memory (bytes/s)
system.physmem.bw_total::switch_cpus0.data     23166777                       # Total bandwidth to/from this memory (bytes/s)
system.physmem.bw_total::switch_cpus1.inst        15964                       # Total bandwidth to/from this memory (bytes/s)
system.physmem.bw_total::switch_cpus1.data     11731972                       # Total bandwidth to/from this memory (bytes/s)
system.physmem.bw_total::total               47861141                       # Total bandwidth to/from this memory (bytes/s)
system.switch_cpus0.dtb.inst_hits                   0                       # ITB inst hits
system.switch_cpus0.dtb.inst_misses                 0                       # ITB inst misses
system.switch_cpus0.dtb.read_hits                   0                       # DTB read hits
system.switch_cpus0.dtb.read_misses                 0                       # DTB read misses
system.switch_cpus0.dtb.write_hits                  0                       # DTB write hits
system.switch_cpus0.dtb.write_misses                0                       # DTB write misses
system.switch_cpus0.dtb.flush_tlb                   0                       # Number of times complete TLB was flushed
system.switch_cpus0.dtb.flush_tlb_mva               0                       # Number of times TLB was flushed by MVA
system.switch_cpus0.dtb.flush_tlb_mva_asid            0                       # Number of times TLB was flushed by MVA & ASID
system.switch_cpus0.dtb.flush_tlb_asid              0                       # Number of times TLB was flushed by ASID
system.switch_cpus0.dtb.flush_entries               0                       # Number of entries that have been flushed from TLB
system.switch_cpus0.dtb.align_faults                0                       # Number of TLB faults due to alignment restrictions
system.switch_cpus0.dtb.prefetch_faults             0                       # Number of TLB faults due to prefetch
system.switch_cpus0.dtb.domain_faults               0                       # Number of TLB faults due to domain restrictions
system.switch_cpus0.dtb.perms_faults                0                       # Number of TLB faults due to permissions restrictions
system.switch_cpus0.dtb.read_accesses               0                       # DTB read accesses
system.switch_cpus0.dtb.write_accesses              0                       # DTB write accesses
system.switch_cpus0.dtb.inst_accesses               0                       # ITB inst accesses
system.switch_cpus0.dtb.hits                        0                       # DTB hits
system.switch_cpus0.dtb.misses                      0                       # DTB misses
system.switch_cpus0.dtb.accesses                    0                       # DTB accesses
system.switch_cpus0.itb.inst_hits                   0                       # ITB inst hits
system.switch_cpus0.itb.inst_misses                 0                       # ITB inst misses
system.switch_cpus0.itb.read_hits                   0                       # DTB read hits
system.switch_cpus0.itb.read_misses                 0                       # DTB read misses
system.switch_cpus0.itb.write_hits                  0                       # DTB write hits
system.switch_cpus0.itb.write_misses                0                       # DTB write misses
system.switch_cpus0.itb.flush_tlb                   0                       # Number of times complete TLB was flushed
system.switch_cpus0.itb.flush_tlb_mva               0                       # Number of times TLB was flushed by MVA
system.switch_cpus0.itb.flush_tlb_mva_asid            0                       # Number of times TLB was flushed by MVA & ASID
system.switch_cpus0.itb.flush_tlb_asid              0                       # Number of times TLB was flushed by ASID
system.switch_cpus0.itb.flush_entries               0                       # Number of entries that have been flushed from TLB
system.switch_cpus0.itb.align_faults                0                       # Number of TLB faults due to alignment restrictions
system.switch_cpus0.itb.prefetch_faults             0                       # Number of TLB faults due to prefetch
system.switch_cpus0.itb.domain_faults               0                       # Number of TLB faults due to domain restrictions
system.switch_cpus0.itb.perms_faults                0                       # Number of TLB faults due to permissions restrictions
system.switch_cpus0.itb.read_accesses               0                       # DTB read accesses
system.switch_cpus0.itb.write_accesses              0                       # DTB write accesses
system.switch_cpus0.itb.inst_accesses               0                       # ITB inst accesses
system.switch_cpus0.itb.hits                        0                       # DTB hits
system.switch_cpus0.itb.misses                      0                       # DTB misses
system.switch_cpus0.itb.accesses                    0                       # DTB accesses
system.cpu0.workload.num_syscalls                   0                       # Number of system calls
system.switch_cpus0.numCycles               249970140                       # number of cpu cycles simulated
system.switch_cpus0.numWorkItemsStarted             0                       # number of work items this cpu started
system.switch_cpus0.numWorkItemsCompleted            0                       # number of work items this cpu completed
system.switch_cpus0.BPredUnit.lookups        21414467                       # Number of BP lookups
system.switch_cpus0.BPredUnit.condPredicted     17436727                       # Number of conditional branches predicted
system.switch_cpus0.BPredUnit.condIncorrect      1918610                       # Number of conditional branches incorrect
system.switch_cpus0.BPredUnit.BTBLookups      8844652                       # Number of BTB lookups
system.switch_cpus0.BPredUnit.BTBHits         8137618                       # Number of BTB hits
system.switch_cpus0.BPredUnit.BTBCorrect            0                       # Number of correct BTB predictions (this stat may not work properly.
system.switch_cpus0.BPredUnit.usedRAS         2236136                       # Number of times the RAS was used to get a target.
system.switch_cpus0.BPredUnit.RASInCorrect        87065                       # Number of incorrect RAS predictions.
system.switch_cpus0.fetch.icacheStallCycles    193724615                       # Number of cycles fetch is stalled on an Icache miss
system.switch_cpus0.fetch.Insts             120531771                       # Number of instructions fetch has processed
system.switch_cpus0.fetch.Branches           21414467                       # Number of branches that fetch encountered
system.switch_cpus0.fetch.predictedBranches     10373754                       # Number of branches that fetch has predicted taken
system.switch_cpus0.fetch.Cycles             25474138                       # Number of cycles fetch has run and was not squashing or blocked
system.switch_cpus0.fetch.SquashCycles        5743137                       # Number of cycles fetch has spent squashing
system.switch_cpus0.fetch.BlockedCycles       8411439                       # Number of cycles fetch has spent blocked
system.switch_cpus0.fetch.CacheLines         11852174                       # Number of cache lines fetched
system.switch_cpus0.fetch.IcacheSquashes      1917950                       # Number of outstanding Icache misses that were squashed
system.switch_cpus0.fetch.rateDist::samples    231403411                       # Number of instructions fetched each cycle (Total)
system.switch_cpus0.fetch.rateDist::mean     0.629807                       # Number of instructions fetched each cycle (Total)
system.switch_cpus0.fetch.rateDist::stdev     1.998527                       # Number of instructions fetched each cycle (Total)
system.switch_cpus0.fetch.rateDist::underflows            0      0.00%      0.00% # Number of instructions fetched each cycle (Total)
system.switch_cpus0.fetch.rateDist::0       205929273     88.99%     88.99% # Number of instructions fetched each cycle (Total)
system.switch_cpus0.fetch.rateDist::1         2725494      1.18%     90.17% # Number of instructions fetched each cycle (Total)
system.switch_cpus0.fetch.rateDist::2         2140501      0.93%     91.09% # Number of instructions fetched each cycle (Total)
system.switch_cpus0.fetch.rateDist::3         2311194      1.00%     92.09% # Number of instructions fetched each cycle (Total)
system.switch_cpus0.fetch.rateDist::4         1952677      0.84%     92.94% # Number of instructions fetched each cycle (Total)
system.switch_cpus0.fetch.rateDist::5         1106516      0.48%     93.42% # Number of instructions fetched each cycle (Total)
system.switch_cpus0.fetch.rateDist::6          758099      0.33%     93.74% # Number of instructions fetched each cycle (Total)
system.switch_cpus0.fetch.rateDist::7         1929639      0.83%     94.58% # Number of instructions fetched each cycle (Total)
system.switch_cpus0.fetch.rateDist::8        12550018      5.42%    100.00% # Number of instructions fetched each cycle (Total)
system.switch_cpus0.fetch.rateDist::overflows            0      0.00%    100.00% # Number of instructions fetched each cycle (Total)
system.switch_cpus0.fetch.rateDist::min_value            0                       # Number of instructions fetched each cycle (Total)
system.switch_cpus0.fetch.rateDist::max_value            8                       # Number of instructions fetched each cycle (Total)
system.switch_cpus0.fetch.rateDist::total    231403411                       # Number of instructions fetched each cycle (Total)
system.switch_cpus0.fetch.branchRate         0.085668                       # Number of branch fetches per cycle
system.switch_cpus0.fetch.rate               0.482185                       # Number of inst fetches per cycle
system.switch_cpus0.decode.IdleCycles       191389460                       # Number of cycles decode is idle
system.switch_cpus0.decode.BlockedCycles     10785558                       # Number of cycles decode is blocked
system.switch_cpus0.decode.RunCycles         25332868                       # Number of cycles decode is running
system.switch_cpus0.decode.UnblockCycles       108830                       # Number of cycles decode is unblocking
system.switch_cpus0.decode.SquashCycles       3786691                       # Number of cycles decode is squashing
system.switch_cpus0.decode.BranchResolved      3651468                       # Number of times decode resolved a branch
system.switch_cpus0.decode.BranchMispred         6528                       # Number of times decode detected a branch misprediction
system.switch_cpus0.decode.DecodedInsts     145460382                       # Number of instructions handled by decode
system.switch_cpus0.decode.SquashedInsts        51680                       # Number of squashed instructions handled by decode
system.switch_cpus0.rename.SquashCycles       3786691                       # Number of cycles rename is squashing
system.switch_cpus0.rename.IdleCycles       191645861                       # Number of cycles rename is idle
system.switch_cpus0.rename.BlockCycles        7153844                       # Number of cycles rename is blocking
system.switch_cpus0.rename.serializeStallCycles      2479787                       # count of cycles rename stalled for serializing inst
system.switch_cpus0.rename.RunCycles         25186042                       # Number of cycles rename is running
system.switch_cpus0.rename.UnblockCycles      1151174                       # Number of cycles rename is unblocking
system.switch_cpus0.rename.RenamedInsts     145244569                       # Number of instructions processed by rename
system.switch_cpus0.rename.ROBFullEvents         2050                       # Number of times rename has blocked due to ROB full
system.switch_cpus0.rename.IQFullEvents        421902                       # Number of times rename has blocked due to IQ full
system.switch_cpus0.rename.LSQFullEvents       569078                       # Number of times rename has blocked due to LSQ full
system.switch_cpus0.rename.FullRegisterEvents        37320                       # Number of times there has been no free registers
system.switch_cpus0.rename.RenamedOperands    203244701                       # Number of destination operands rename has renamed
system.switch_cpus0.rename.RenameLookups    676909027                       # Number of register rename lookups that rename has made
system.switch_cpus0.rename.int_rename_lookups    676909027                       # Number of integer rename lookups
system.switch_cpus0.rename.CommittedMaps    168450697                       # Number of HB maps that are committed
system.switch_cpus0.rename.UndoneMaps        34793995                       # Number of HB maps that are undone due to squashing
system.switch_cpus0.rename.serializingInsts        33811                       # count of serializing insts renamed
system.switch_cpus0.rename.tempSerializingInsts        17731                       # count of temporary serializing insts renamed
system.switch_cpus0.rename.skidInsts          3605987                       # count of insts added to the skid buffer
system.switch_cpus0.memDep0.insertedLoads     13980666                       # Number of loads inserted to the mem dependence unit.
system.switch_cpus0.memDep0.insertedStores      7850194                       # Number of stores inserted to the mem dependence unit.
system.switch_cpus0.memDep0.conflictingLoads       295752                       # Number of conflicting loads.
system.switch_cpus0.memDep0.conflictingStores      1692875                       # Number of conflicting stores.
system.switch_cpus0.iq.iqInstsAdded         144732218                       # Number of instructions added to the IQ (excludes non-spec)
system.switch_cpus0.iq.iqNonSpecInstsAdded        33811                       # Number of non-speculative instructions added to the IQ
system.switch_cpus0.iq.iqInstsIssued        137432138                       # Number of instructions issued
system.switch_cpus0.iq.iqSquashedInstsIssued        83261                       # Number of squashed instructions issued
system.switch_cpus0.iq.iqSquashedInstsExamined     20224792                       # Number of squashed instructions iterated over during squash; mainly for profiling
system.switch_cpus0.iq.iqSquashedOperandsExamined     41299372                       # Number of squashed operands that are examined and possibly removed from graph
system.switch_cpus0.iq.iqSquashedNonSpecRemoved         1651                       # Number of squashed non-spec instructions that were removed
system.switch_cpus0.iq.issued_per_cycle::samples    231403411                       # Number of insts issued each cycle
system.switch_cpus0.iq.issued_per_cycle::mean     0.593907                       # Number of insts issued each cycle
system.switch_cpus0.iq.issued_per_cycle::stdev     1.298737                       # Number of insts issued each cycle
system.switch_cpus0.iq.issued_per_cycle::underflows            0      0.00%      0.00% # Number of insts issued each cycle
system.switch_cpus0.iq.issued_per_cycle::0    173358502     74.92%     74.92% # Number of insts issued each cycle
system.switch_cpus0.iq.issued_per_cycle::1     24495866     10.59%     85.50% # Number of insts issued each cycle
system.switch_cpus0.iq.issued_per_cycle::2     12390944      5.35%     90.86% # Number of insts issued each cycle
system.switch_cpus0.iq.issued_per_cycle::3      7984436      3.45%     94.31% # Number of insts issued each cycle
system.switch_cpus0.iq.issued_per_cycle::4      6570517      2.84%     97.15% # Number of insts issued each cycle
system.switch_cpus0.iq.issued_per_cycle::5      2583453      1.12%     98.26% # Number of insts issued each cycle
system.switch_cpus0.iq.issued_per_cycle::6      3188389      1.38%     99.64% # Number of insts issued each cycle
system.switch_cpus0.iq.issued_per_cycle::7       779023      0.34%     99.98% # Number of insts issued each cycle
system.switch_cpus0.iq.issued_per_cycle::8        52281      0.02%    100.00% # Number of insts issued each cycle
system.switch_cpus0.iq.issued_per_cycle::overflows            0      0.00%    100.00% # Number of insts issued each cycle
system.switch_cpus0.iq.issued_per_cycle::min_value            0                       # Number of insts issued each cycle
system.switch_cpus0.iq.issued_per_cycle::max_value            8                       # Number of insts issued each cycle
system.switch_cpus0.iq.issued_per_cycle::total    231403411                       # Number of insts issued each cycle
system.switch_cpus0.iq.fu_full::No_OpClass            0      0.00%      0.00% # attempts to use FU when none available
system.switch_cpus0.iq.fu_full::IntAlu         961918     75.38%     75.38% # attempts to use FU when none available
system.switch_cpus0.iq.fu_full::IntMult             0      0.00%     75.38% # attempts to use FU when none available
system.switch_cpus0.iq.fu_full::IntDiv              0      0.00%     75.38% # attempts to use FU when none available
system.switch_cpus0.iq.fu_full::FloatAdd            0      0.00%     75.38% # attempts to use FU when none available
system.switch_cpus0.iq.fu_full::FloatCmp            0      0.00%     75.38% # attempts to use FU when none available
system.switch_cpus0.iq.fu_full::FloatCvt            0      0.00%     75.38% # attempts to use FU when none available
system.switch_cpus0.iq.fu_full::FloatMult            0      0.00%     75.38% # attempts to use FU when none available
system.switch_cpus0.iq.fu_full::FloatDiv            0      0.00%     75.38% # attempts to use FU when none available
system.switch_cpus0.iq.fu_full::FloatSqrt            0      0.00%     75.38% # attempts to use FU when none available
system.switch_cpus0.iq.fu_full::SimdAdd             0      0.00%     75.38% # attempts to use FU when none available
system.switch_cpus0.iq.fu_full::SimdAddAcc            0      0.00%     75.38% # attempts to use FU when none available
system.switch_cpus0.iq.fu_full::SimdAlu             0      0.00%     75.38% # attempts to use FU when none available
system.switch_cpus0.iq.fu_full::SimdCmp             0      0.00%     75.38% # attempts to use FU when none available
system.switch_cpus0.iq.fu_full::SimdCvt             0      0.00%     75.38% # attempts to use FU when none available
system.switch_cpus0.iq.fu_full::SimdMisc            0      0.00%     75.38% # attempts to use FU when none available
system.switch_cpus0.iq.fu_full::SimdMult            0      0.00%     75.38% # attempts to use FU when none available
system.switch_cpus0.iq.fu_full::SimdMultAcc            0      0.00%     75.38% # attempts to use FU when none available
system.switch_cpus0.iq.fu_full::SimdShift            0      0.00%     75.38% # attempts to use FU when none available
system.switch_cpus0.iq.fu_full::SimdShiftAcc            0      0.00%     75.38% # attempts to use FU when none available
system.switch_cpus0.iq.fu_full::SimdSqrt            0      0.00%     75.38% # attempts to use FU when none available
system.switch_cpus0.iq.fu_full::SimdFloatAdd            0      0.00%     75.38% # attempts to use FU when none available
system.switch_cpus0.iq.fu_full::SimdFloatAlu            0      0.00%     75.38% # attempts to use FU when none available
system.switch_cpus0.iq.fu_full::SimdFloatCmp            0      0.00%     75.38% # attempts to use FU when none available
system.switch_cpus0.iq.fu_full::SimdFloatCvt            0      0.00%     75.38% # attempts to use FU when none available
system.switch_cpus0.iq.fu_full::SimdFloatDiv            0      0.00%     75.38% # attempts to use FU when none available
system.switch_cpus0.iq.fu_full::SimdFloatMisc            0      0.00%     75.38% # attempts to use FU when none available
system.switch_cpus0.iq.fu_full::SimdFloatMult            0      0.00%     75.38% # attempts to use FU when none available
system.switch_cpus0.iq.fu_full::SimdFloatMultAcc            0      0.00%     75.38% # attempts to use FU when none available
system.switch_cpus0.iq.fu_full::SimdFloatSqrt            0      0.00%     75.38% # attempts to use FU when none available
system.switch_cpus0.iq.fu_full::MemRead        145423     11.40%     86.78% # attempts to use FU when none available
system.switch_cpus0.iq.fu_full::MemWrite       168711     13.22%    100.00% # attempts to use FU when none available
system.switch_cpus0.iq.fu_full::IprAccess            0      0.00%    100.00% # attempts to use FU when none available
system.switch_cpus0.iq.fu_full::InstPrefetch            0      0.00%    100.00% # attempts to use FU when none available
system.switch_cpus0.iq.FU_type_0::No_OpClass            0      0.00%      0.00% # Type of FU issued
system.switch_cpus0.iq.FU_type_0::IntAlu    113941193     82.91%     82.91% # Type of FU issued
system.switch_cpus0.iq.FU_type_0::IntMult      2016472      1.47%     84.37% # Type of FU issued
system.switch_cpus0.iq.FU_type_0::IntDiv            0      0.00%     84.37% # Type of FU issued
system.switch_cpus0.iq.FU_type_0::FloatAdd            0      0.00%     84.37% # Type of FU issued
system.switch_cpus0.iq.FU_type_0::FloatCmp            0      0.00%     84.37% # Type of FU issued
system.switch_cpus0.iq.FU_type_0::FloatCvt            0      0.00%     84.37% # Type of FU issued
system.switch_cpus0.iq.FU_type_0::FloatMult            0      0.00%     84.37% # Type of FU issued
system.switch_cpus0.iq.FU_type_0::FloatDiv            0      0.00%     84.37% # Type of FU issued
system.switch_cpus0.iq.FU_type_0::FloatSqrt            0      0.00%     84.37% # Type of FU issued
system.switch_cpus0.iq.FU_type_0::SimdAdd            0      0.00%     84.37% # Type of FU issued
system.switch_cpus0.iq.FU_type_0::SimdAddAcc            0      0.00%     84.37% # Type of FU issued
system.switch_cpus0.iq.FU_type_0::SimdAlu            0      0.00%     84.37% # Type of FU issued
system.switch_cpus0.iq.FU_type_0::SimdCmp            0      0.00%     84.37% # Type of FU issued
system.switch_cpus0.iq.FU_type_0::SimdCvt            0      0.00%     84.37% # Type of FU issued
system.switch_cpus0.iq.FU_type_0::SimdMisc            0      0.00%     84.37% # Type of FU issued
system.switch_cpus0.iq.FU_type_0::SimdMult            0      0.00%     84.37% # Type of FU issued
system.switch_cpus0.iq.FU_type_0::SimdMultAcc            0      0.00%     84.37% # Type of FU issued
system.switch_cpus0.iq.FU_type_0::SimdShift            0      0.00%     84.37% # Type of FU issued
system.switch_cpus0.iq.FU_type_0::SimdShiftAcc            0      0.00%     84.37% # Type of FU issued
system.switch_cpus0.iq.FU_type_0::SimdSqrt            0      0.00%     84.37% # Type of FU issued
system.switch_cpus0.iq.FU_type_0::SimdFloatAdd            0      0.00%     84.37% # Type of FU issued
system.switch_cpus0.iq.FU_type_0::SimdFloatAlu            0      0.00%     84.37% # Type of FU issued
system.switch_cpus0.iq.FU_type_0::SimdFloatCmp            0      0.00%     84.37% # Type of FU issued
system.switch_cpus0.iq.FU_type_0::SimdFloatCvt            0      0.00%     84.37% # Type of FU issued
system.switch_cpus0.iq.FU_type_0::SimdFloatDiv            0      0.00%     84.37% # Type of FU issued
system.switch_cpus0.iq.FU_type_0::SimdFloatMisc        16080      0.01%     84.39% # Type of FU issued
system.switch_cpus0.iq.FU_type_0::SimdFloatMult            0      0.00%     84.39% # Type of FU issued
system.switch_cpus0.iq.FU_type_0::SimdFloatMultAcc            0      0.00%     84.39% # Type of FU issued
system.switch_cpus0.iq.FU_type_0::SimdFloatSqrt            0      0.00%     84.39% # Type of FU issued
system.switch_cpus0.iq.FU_type_0::MemRead     13653221      9.93%     94.32% # Type of FU issued
system.switch_cpus0.iq.FU_type_0::MemWrite      7805172      5.68%    100.00% # Type of FU issued
system.switch_cpus0.iq.FU_type_0::IprAccess            0      0.00%    100.00% # Type of FU issued
system.switch_cpus0.iq.FU_type_0::InstPrefetch            0      0.00%    100.00% # Type of FU issued
system.switch_cpus0.iq.FU_type_0::total     137432138                       # Type of FU issued
system.switch_cpus0.iq.rate                  0.549794                       # Inst issue rate
system.switch_cpus0.iq.fu_busy_cnt            1276052                       # FU busy when requested
system.switch_cpus0.iq.fu_busy_rate          0.009285                       # FU busy rate (busy events/executed inst)
system.switch_cpus0.iq.int_inst_queue_reads    507627000                       # Number of integer instruction queue reads
system.switch_cpus0.iq.int_inst_queue_writes    164991517                       # Number of integer instruction queue writes
system.switch_cpus0.iq.int_inst_queue_wakeup_accesses    133614623                       # Number of integer instruction queue wakeup accesses
system.switch_cpus0.iq.fp_inst_queue_reads            0                       # Number of floating instruction queue reads
system.switch_cpus0.iq.fp_inst_queue_writes            0                       # Number of floating instruction queue writes
system.switch_cpus0.iq.fp_inst_queue_wakeup_accesses            0                       # Number of floating instruction queue wakeup accesses
system.switch_cpus0.iq.int_alu_accesses     138708190                       # Number of integer alu accesses
system.switch_cpus0.iq.fp_alu_accesses              0                       # Number of floating point alu accesses
system.switch_cpus0.iew.lsq.thread0.forwLoads       153962                       # Number of loads that had data forwarded from stores
system.switch_cpus0.iew.lsq.thread0.invAddrLoads            0                       # Number of loads ignored due to an invalid address
system.switch_cpus0.iew.lsq.thread0.squashedLoads      1829066                       # Number of loads squashed
system.switch_cpus0.iew.lsq.thread0.ignoredResponses           60                       # Number of memory responses ignored because the instruction is squashed
system.switch_cpus0.iew.lsq.thread0.memOrderViolation          702                       # Number of memory ordering violations
system.switch_cpus0.iew.lsq.thread0.squashedStores       140628                       # Number of stores squashed
system.switch_cpus0.iew.lsq.thread0.invAddrSwpfs            0                       # Number of software prefetches ignored due to an invalid address
system.switch_cpus0.iew.lsq.thread0.blockedLoads            0                       # Number of blocked loads due to partial load-store forwarding
system.switch_cpus0.iew.lsq.thread0.rescheduledLoads          551                       # Number of loads that were rescheduled
system.switch_cpus0.iew.lsq.thread0.cacheBlocked            0                       # Number of times an access to memory failed due to the cache being blocked
system.switch_cpus0.iew.iewIdleCycles               0                       # Number of cycles IEW is idle
system.switch_cpus0.iew.iewSquashCycles       3786691                       # Number of cycles IEW is squashing
system.switch_cpus0.iew.iewBlockCycles        6410476                       # Number of cycles IEW is blocking
system.switch_cpus0.iew.iewUnblockCycles       284180                       # Number of cycles IEW is unblocking
system.switch_cpus0.iew.iewDispatchedInsts    144766029                       # Number of instructions dispatched to IQ
system.switch_cpus0.iew.iewDispSquashedInsts          403                       # Number of squashed instructions skipped by dispatch
system.switch_cpus0.iew.iewDispLoadInsts     13980666                       # Number of dispatched load instructions
system.switch_cpus0.iew.iewDispStoreInsts      7850194                       # Number of dispatched store instructions
system.switch_cpus0.iew.iewDispNonSpecInsts        17731                       # Number of dispatched non-speculative instructions
system.switch_cpus0.iew.iewIQFullEvents        220203                       # Number of times the IQ has become full, causing a stall
system.switch_cpus0.iew.iewLSQFullEvents        12613                       # Number of times the LSQ has become full, causing a stall
system.switch_cpus0.iew.memOrderViolationEvents          702                       # Number of memory order violations
system.switch_cpus0.iew.predictedTakenIncorrect      1148619                       # Number of branches that were predicted taken incorrectly
system.switch_cpus0.iew.predictedNotTakenIncorrect      1066489                       # Number of branches that were predicted not taken incorrectly
system.switch_cpus0.iew.branchMispredicts      2215108                       # Number of branch mispredicts detected at execute
system.switch_cpus0.iew.iewExecutedInsts    134843274                       # Number of executed instructions
system.switch_cpus0.iew.iewExecLoadInsts     13521489                       # Number of load instructions executed
system.switch_cpus0.iew.iewExecSquashedInsts      2588864                       # Number of squashed instructions skipped in execute
system.switch_cpus0.iew.exec_swp                    0                       # number of swp insts executed
system.switch_cpus0.iew.exec_nop                    0                       # number of nop insts executed
system.switch_cpus0.iew.exec_refs            21326000                       # number of memory reference insts executed
system.switch_cpus0.iew.exec_branches        19245908                       # Number of branches executed
system.switch_cpus0.iew.exec_stores           7804511                       # Number of stores executed
system.switch_cpus0.iew.exec_rate            0.539438                       # Inst execution rate
system.switch_cpus0.iew.wb_sent             133616797                       # cumulative count of insts sent to commit
system.switch_cpus0.iew.wb_count            133614623                       # cumulative count of insts written-back
system.switch_cpus0.iew.wb_producers         79395435                       # num instructions producing a value
system.switch_cpus0.iew.wb_consumers        213681032                       # num instructions consuming a value
system.switch_cpus0.iew.wb_penalized                0                       # number of instrctions required to write to 'other' IQ
system.switch_cpus0.iew.wb_rate              0.534522                       # insts written-back per cycle
system.switch_cpus0.iew.wb_fanout            0.371561                       # average fanout of values written-back
system.switch_cpus0.iew.wb_penalized_rate            0                       # fraction of instructions written-back that wrote to 'other' IQ
system.switch_cpus0.commit.commitCommittedInsts    100000001                       # The number of committed instructions
system.switch_cpus0.commit.commitCommittedOps    122466363                       # The number of committed instructions
system.switch_cpus0.commit.commitSquashedInsts     22309714                       # The number of squashed insts skipped by commit
system.switch_cpus0.commit.commitNonSpecStalls        32160                       # The number of times commit has been forced to stall to communicate backwards
system.switch_cpus0.commit.branchMispredicts      1942834                       # The number of times a branch was mispredicted
system.switch_cpus0.commit.committed_per_cycle::samples    227616720                       # Number of insts commited each cycle
system.switch_cpus0.commit.committed_per_cycle::mean     0.538038                       # Number of insts commited each cycle
system.switch_cpus0.commit.committed_per_cycle::stdev     1.391005                       # Number of insts commited each cycle
system.switch_cpus0.commit.committed_per_cycle::underflows            0      0.00%      0.00% # Number of insts commited each cycle
system.switch_cpus0.commit.committed_per_cycle::0    177824124     78.12%     78.12% # Number of insts commited each cycle
system.switch_cpus0.commit.committed_per_cycle::1     23331955     10.25%     88.37% # Number of insts commited each cycle
system.switch_cpus0.commit.committed_per_cycle::2     10837559      4.76%     93.14% # Number of insts commited each cycle
system.switch_cpus0.commit.committed_per_cycle::3      4820791      2.12%     95.25% # Number of insts commited each cycle
system.switch_cpus0.commit.committed_per_cycle::4      3656520      1.61%     96.86% # Number of insts commited each cycle
system.switch_cpus0.commit.committed_per_cycle::5      1544325      0.68%     97.54% # Number of insts commited each cycle
system.switch_cpus0.commit.committed_per_cycle::6      1533429      0.67%     98.21% # Number of insts commited each cycle
system.switch_cpus0.commit.committed_per_cycle::7      1095498      0.48%     98.69% # Number of insts commited each cycle
system.switch_cpus0.commit.committed_per_cycle::8      2972519      1.31%    100.00% # Number of insts commited each cycle
system.switch_cpus0.commit.committed_per_cycle::overflows            0      0.00%    100.00% # Number of insts commited each cycle
system.switch_cpus0.commit.committed_per_cycle::min_value            0                       # Number of insts commited each cycle
system.switch_cpus0.commit.committed_per_cycle::max_value            8                       # Number of insts commited each cycle
system.switch_cpus0.commit.committed_per_cycle::total    227616720                       # Number of insts commited each cycle
system.switch_cpus0.commit.committedInsts    100000001                       # Number of instructions committed
system.switch_cpus0.commit.committedOps     122466363                       # Number of ops (including micro ops) committed
system.switch_cpus0.commit.swp_count                0                       # Number of s/w prefetches committed
system.switch_cpus0.commit.refs              19861166                       # Number of memory references committed
system.switch_cpus0.commit.loads             12151600                       # Number of loads committed
system.switch_cpus0.commit.membars              16080                       # Number of memory barriers committed
system.switch_cpus0.commit.branches          17572811                       # Number of branches committed
system.switch_cpus0.commit.fp_insts                 0                       # Number of committed floating point instructions.
system.switch_cpus0.commit.int_insts        110207504                       # Number of committed integer instructions.
system.switch_cpus0.commit.function_calls      2420799                       # Number of function calls committed.
system.switch_cpus0.commit.bw_lim_events      2972519                       # number cycles where commit BW limit reached
system.switch_cpus0.commit.bw_limited               0                       # number of insts not committed due to BW limits
system.switch_cpus0.rob.rob_reads           369420278                       # The number of ROB reads
system.switch_cpus0.rob.rob_writes          293338895                       # The number of ROB writes
system.switch_cpus0.timesIdled                2866112                       # Number of times that the entire CPU went into an idle state and unscheduled itself
system.switch_cpus0.idleCycles               18566729                       # Total number of cycles that the CPU has spent unscheduled due to idling
system.switch_cpus0.committedInsts          100000001                       # Number of Instructions Simulated
system.switch_cpus0.committedOps            122466363                       # Number of Ops (including micro ops) Simulated
system.switch_cpus0.committedInsts_total    100000001                       # Number of Instructions Simulated
system.switch_cpus0.cpi                      2.499701                       # CPI: Cycles Per Instruction
system.switch_cpus0.cpi_total                2.499701                       # CPI: Total CPI of All Threads
system.switch_cpus0.ipc                      0.400048                       # IPC: Instructions Per Cycle
system.switch_cpus0.ipc_total                0.400048                       # IPC: Total IPC of All Threads
system.switch_cpus0.int_regfile_reads       609694496                       # number of integer regfile reads
system.switch_cpus0.int_regfile_writes      184108729                       # number of integer regfile writes
system.switch_cpus0.misc_regfile_reads      138175517                       # number of misc regfile reads
system.switch_cpus0.misc_regfile_writes         32160                       # number of misc regfile writes
system.switch_cpus1.dtb.inst_hits                   0                       # ITB inst hits
system.switch_cpus1.dtb.inst_misses                 0                       # ITB inst misses
system.switch_cpus1.dtb.read_hits                   0                       # DTB read hits
system.switch_cpus1.dtb.read_misses                 0                       # DTB read misses
system.switch_cpus1.dtb.write_hits                  0                       # DTB write hits
system.switch_cpus1.dtb.write_misses                0                       # DTB write misses
system.switch_cpus1.dtb.flush_tlb                   0                       # Number of times complete TLB was flushed
system.switch_cpus1.dtb.flush_tlb_mva               0                       # Number of times TLB was flushed by MVA
system.switch_cpus1.dtb.flush_tlb_mva_asid            0                       # Number of times TLB was flushed by MVA & ASID
system.switch_cpus1.dtb.flush_tlb_asid              0                       # Number of times TLB was flushed by ASID
system.switch_cpus1.dtb.flush_entries               0                       # Number of entries that have been flushed from TLB
system.switch_cpus1.dtb.align_faults                0                       # Number of TLB faults due to alignment restrictions
system.switch_cpus1.dtb.prefetch_faults             0                       # Number of TLB faults due to prefetch
system.switch_cpus1.dtb.domain_faults               0                       # Number of TLB faults due to domain restrictions
system.switch_cpus1.dtb.perms_faults                0                       # Number of TLB faults due to permissions restrictions
system.switch_cpus1.dtb.read_accesses               0                       # DTB read accesses
system.switch_cpus1.dtb.write_accesses              0                       # DTB write accesses
system.switch_cpus1.dtb.inst_accesses               0                       # ITB inst accesses
system.switch_cpus1.dtb.hits                        0                       # DTB hits
system.switch_cpus1.dtb.misses                      0                       # DTB misses
system.switch_cpus1.dtb.accesses                    0                       # DTB accesses
system.switch_cpus1.itb.inst_hits                   0                       # ITB inst hits
system.switch_cpus1.itb.inst_misses                 0                       # ITB inst misses
system.switch_cpus1.itb.read_hits                   0                       # DTB read hits
system.switch_cpus1.itb.read_misses                 0                       # DTB read misses
system.switch_cpus1.itb.write_hits                  0                       # DTB write hits
system.switch_cpus1.itb.write_misses                0                       # DTB write misses
system.switch_cpus1.itb.flush_tlb                   0                       # Number of times complete TLB was flushed
system.switch_cpus1.itb.flush_tlb_mva               0                       # Number of times TLB was flushed by MVA
system.switch_cpus1.itb.flush_tlb_mva_asid            0                       # Number of times TLB was flushed by MVA & ASID
system.switch_cpus1.itb.flush_tlb_asid              0                       # Number of times TLB was flushed by ASID
system.switch_cpus1.itb.flush_entries               0                       # Number of entries that have been flushed from TLB
system.switch_cpus1.itb.align_faults                0                       # Number of TLB faults due to alignment restrictions
system.switch_cpus1.itb.prefetch_faults             0                       # Number of TLB faults due to prefetch
system.switch_cpus1.itb.domain_faults               0                       # Number of TLB faults due to domain restrictions
system.switch_cpus1.itb.perms_faults                0                       # Number of TLB faults due to permissions restrictions
system.switch_cpus1.itb.read_accesses               0                       # DTB read accesses
system.switch_cpus1.itb.write_accesses              0                       # DTB write accesses
system.switch_cpus1.itb.inst_accesses               0                       # ITB inst accesses
system.switch_cpus1.itb.hits                        0                       # DTB hits
system.switch_cpus1.itb.misses                      0                       # DTB misses
system.switch_cpus1.itb.accesses                    0                       # DTB accesses
system.cpu1.workload.num_syscalls                   0                       # Number of system calls
system.switch_cpus1.numCycles               249970140                       # number of cpu cycles simulated
system.switch_cpus1.numWorkItemsStarted             0                       # number of work items this cpu started
system.switch_cpus1.numWorkItemsCompleted            0                       # number of work items this cpu completed
system.switch_cpus1.BPredUnit.lookups        20495669                       # Number of BP lookups
system.switch_cpus1.BPredUnit.condPredicted     16756152                       # Number of conditional branches predicted
system.switch_cpus1.BPredUnit.condIncorrect      1995760                       # Number of conditional branches incorrect
system.switch_cpus1.BPredUnit.BTBLookups      8392083                       # Number of BTB lookups
system.switch_cpus1.BPredUnit.BTBHits         8040599                       # Number of BTB hits
system.switch_cpus1.BPredUnit.BTBCorrect            0                       # Number of correct BTB predictions (this stat may not work properly.
system.switch_cpus1.BPredUnit.usedRAS         2100447                       # Number of times the RAS was used to get a target.
system.switch_cpus1.BPredUnit.RASInCorrect        90148                       # Number of incorrect RAS predictions.
system.switch_cpus1.fetch.icacheStallCycles    197312642                       # Number of cycles fetch is stalled on an Icache miss
system.switch_cpus1.fetch.Insts             115121556                       # Number of instructions fetch has processed
system.switch_cpus1.fetch.Branches           20495669                       # Number of branches that fetch encountered
system.switch_cpus1.fetch.predictedBranches     10141046                       # Number of branches that fetch has predicted taken
system.switch_cpus1.fetch.Cycles             23981326                       # Number of cycles fetch has run and was not squashing or blocked
system.switch_cpus1.fetch.SquashCycles        5539025                       # Number of cycles fetch has spent squashing
system.switch_cpus1.fetch.BlockedCycles       4978007                       # Number of cycles fetch has spent blocked
system.switch_cpus1.fetch.CacheLines         12087449                       # Number of cache lines fetched
system.switch_cpus1.fetch.IcacheSquashes      1997468                       # Number of outstanding Icache misses that were squashed
system.switch_cpus1.fetch.rateDist::samples    229781585                       # Number of instructions fetched each cycle (Total)
system.switch_cpus1.fetch.rateDist::mean     0.614352                       # Number of instructions fetched each cycle (Total)
system.switch_cpus1.fetch.rateDist::stdev     1.958199                       # Number of instructions fetched each cycle (Total)
system.switch_cpus1.fetch.rateDist::underflows            0      0.00%      0.00% # Number of instructions fetched each cycle (Total)
system.switch_cpus1.fetch.rateDist::0       205800259     89.56%     89.56% # Number of instructions fetched each cycle (Total)
system.switch_cpus1.fetch.rateDist::1         1152953      0.50%     90.07% # Number of instructions fetched each cycle (Total)
system.switch_cpus1.fetch.rateDist::2         1754696      0.76%     90.83% # Number of instructions fetched each cycle (Total)
system.switch_cpus1.fetch.rateDist::3         2398076      1.04%     91.87% # Number of instructions fetched each cycle (Total)
system.switch_cpus1.fetch.rateDist::4         2463508      1.07%     92.94% # Number of instructions fetched each cycle (Total)
system.switch_cpus1.fetch.rateDist::5         2059683      0.90%     93.84% # Number of instructions fetched each cycle (Total)
system.switch_cpus1.fetch.rateDist::6         1170428      0.51%     94.35% # Number of instructions fetched each cycle (Total)
system.switch_cpus1.fetch.rateDist::7         1720762      0.75%     95.10% # Number of instructions fetched each cycle (Total)
system.switch_cpus1.fetch.rateDist::8        11261220      4.90%    100.00% # Number of instructions fetched each cycle (Total)
system.switch_cpus1.fetch.rateDist::overflows            0      0.00%    100.00% # Number of instructions fetched each cycle (Total)
system.switch_cpus1.fetch.rateDist::min_value            0                       # Number of instructions fetched each cycle (Total)
system.switch_cpus1.fetch.rateDist::max_value            8                       # Number of instructions fetched each cycle (Total)
system.switch_cpus1.fetch.rateDist::total    229781585                       # Number of instructions fetched each cycle (Total)
system.switch_cpus1.fetch.branchRate         0.081992                       # Number of branch fetches per cycle
system.switch_cpus1.fetch.rate               0.460541                       # Number of inst fetches per cycle
system.switch_cpus1.decode.IdleCycles       195056893                       # Number of cycles decode is idle
system.switch_cpus1.decode.BlockedCycles      7252210                       # Number of cycles decode is blocked
system.switch_cpus1.decode.RunCycles         23917524                       # Number of cycles decode is running
system.switch_cpus1.decode.UnblockCycles        45575                       # Number of cycles decode is unblocking
system.switch_cpus1.decode.SquashCycles       3509374                       # Number of cycles decode is squashing
system.switch_cpus1.decode.BranchResolved      3383042                       # Number of times decode resolved a branch
system.switch_cpus1.decode.BranchMispred          237                       # Number of times decode detected a branch misprediction
system.switch_cpus1.decode.DecodedInsts     141051742                       # Number of instructions handled by decode
system.switch_cpus1.decode.SquashedInsts         1318                       # Number of squashed instructions handled by decode
system.switch_cpus1.rename.SquashCycles       3509374                       # Number of cycles rename is squashing
system.switch_cpus1.rename.IdleCycles       195608184                       # Number of cycles rename is idle
system.switch_cpus1.rename.BlockCycles        1332528                       # Number of cycles rename is blocking
system.switch_cpus1.rename.serializeStallCycles      4529165                       # count of cycles rename stalled for serializing inst
system.switch_cpus1.rename.RunCycles         23421038                       # Number of cycles rename is running
system.switch_cpus1.rename.UnblockCycles      1381287                       # Number of cycles rename is unblocking
system.switch_cpus1.rename.RenamedInsts     140962827                       # Number of instructions processed by rename
system.switch_cpus1.rename.ROBFullEvents          854                       # Number of times rename has blocked due to ROB full
system.switch_cpus1.rename.IQFullEvents        311582                       # Number of times rename has blocked due to IQ full
system.switch_cpus1.rename.LSQFullEvents       551868                       # Number of times rename has blocked due to LSQ full
system.switch_cpus1.rename.FullRegisterEvents          643                       # Number of times there has been no free registers
system.switch_cpus1.rename.RenamedOperands    195881519                       # Number of destination operands rename has renamed
system.switch_cpus1.rename.RenameLookups    656036497                       # Number of register rename lookups that rename has made
system.switch_cpus1.rename.int_rename_lookups    656036497                       # Number of integer rename lookups
system.switch_cpus1.rename.CommittedMaps    169310866                       # Number of HB maps that are committed
system.switch_cpus1.rename.UndoneMaps        26570653                       # Number of HB maps that are undone due to squashing
system.switch_cpus1.rename.serializingInsts        39238                       # count of serializing insts renamed
system.switch_cpus1.rename.tempSerializingInsts        22710                       # count of temporary serializing insts renamed
system.switch_cpus1.rename.skidInsts          4013618                       # count of insts added to the skid buffer
system.switch_cpus1.memDep0.insertedLoads     13384942                       # Number of loads inserted to the mem dependence unit.
system.switch_cpus1.memDep0.insertedStores      7340110                       # Number of stores inserted to the mem dependence unit.
system.switch_cpus1.memDep0.conflictingLoads       129480                       # Number of conflicting loads.
system.switch_cpus1.memDep0.conflictingStores      1598447                       # Number of conflicting stores.
system.switch_cpus1.iq.iqInstsAdded         140769690                       # Number of instructions added to the IQ (excludes non-spec)
system.switch_cpus1.iq.iqNonSpecInstsAdded        39223                       # Number of non-speculative instructions added to the IQ
system.switch_cpus1.iq.iqInstsIssued        133512420                       # Number of instructions issued
system.switch_cpus1.iq.iqSquashedInstsIssued        26424                       # Number of squashed instructions issued
system.switch_cpus1.iq.iqSquashedInstsExamined     16022272                       # Number of squashed instructions iterated over during squash; mainly for profiling
system.switch_cpus1.iq.iqSquashedOperandsExamined     38058299                       # Number of squashed operands that are examined and possibly removed from graph
system.switch_cpus1.iq.iqSquashedNonSpecRemoved         6167                       # Number of squashed non-spec instructions that were removed
system.switch_cpus1.iq.issued_per_cycle::samples    229781585                       # Number of insts issued each cycle
system.switch_cpus1.iq.issued_per_cycle::mean     0.581041                       # Number of insts issued each cycle
system.switch_cpus1.iq.issued_per_cycle::stdev     1.270389                       # Number of insts issued each cycle
system.switch_cpus1.iq.issued_per_cycle::underflows            0      0.00%      0.00% # Number of insts issued each cycle
system.switch_cpus1.iq.issued_per_cycle::0    173329282     75.43%     75.43% # Number of insts issued each cycle
system.switch_cpus1.iq.issued_per_cycle::1     23014811     10.02%     85.45% # Number of insts issued each cycle
system.switch_cpus1.iq.issued_per_cycle::2     11900788      5.18%     90.63% # Number of insts issued each cycle
system.switch_cpus1.iq.issued_per_cycle::3      8968685      3.90%     94.53% # Number of insts issued each cycle
system.switch_cpus1.iq.issued_per_cycle::4      6973957      3.04%     97.57% # Number of insts issued each cycle
system.switch_cpus1.iq.issued_per_cycle::5      2798927      1.22%     98.78% # Number of insts issued each cycle
system.switch_cpus1.iq.issued_per_cycle::6      1779935      0.77%     99.56% # Number of insts issued each cycle
system.switch_cpus1.iq.issued_per_cycle::7       901695      0.39%     99.95% # Number of insts issued each cycle
system.switch_cpus1.iq.issued_per_cycle::8       113505      0.05%    100.00% # Number of insts issued each cycle
system.switch_cpus1.iq.issued_per_cycle::overflows            0      0.00%    100.00% # Number of insts issued each cycle
system.switch_cpus1.iq.issued_per_cycle::min_value            0                       # Number of insts issued each cycle
system.switch_cpus1.iq.issued_per_cycle::max_value            8                       # Number of insts issued each cycle
system.switch_cpus1.iq.issued_per_cycle::total    229781585                       # Number of insts issued each cycle
system.switch_cpus1.iq.fu_full::No_OpClass            0      0.00%      0.00% # attempts to use FU when none available
system.switch_cpus1.iq.fu_full::IntAlu          23818     10.05%     10.05% # attempts to use FU when none available
system.switch_cpus1.iq.fu_full::IntMult             0      0.00%     10.05% # attempts to use FU when none available
system.switch_cpus1.iq.fu_full::IntDiv              0      0.00%     10.05% # attempts to use FU when none available
system.switch_cpus1.iq.fu_full::FloatAdd            0      0.00%     10.05% # attempts to use FU when none available
system.switch_cpus1.iq.fu_full::FloatCmp            0      0.00%     10.05% # attempts to use FU when none available
system.switch_cpus1.iq.fu_full::FloatCvt            0      0.00%     10.05% # attempts to use FU when none available
system.switch_cpus1.iq.fu_full::FloatMult            0      0.00%     10.05% # attempts to use FU when none available
system.switch_cpus1.iq.fu_full::FloatDiv            0      0.00%     10.05% # attempts to use FU when none available
system.switch_cpus1.iq.fu_full::FloatSqrt            0      0.00%     10.05% # attempts to use FU when none available
system.switch_cpus1.iq.fu_full::SimdAdd             0      0.00%     10.05% # attempts to use FU when none available
system.switch_cpus1.iq.fu_full::SimdAddAcc            0      0.00%     10.05% # attempts to use FU when none available
system.switch_cpus1.iq.fu_full::SimdAlu             0      0.00%     10.05% # attempts to use FU when none available
system.switch_cpus1.iq.fu_full::SimdCmp             0      0.00%     10.05% # attempts to use FU when none available
system.switch_cpus1.iq.fu_full::SimdCvt             0      0.00%     10.05% # attempts to use FU when none available
system.switch_cpus1.iq.fu_full::SimdMisc            0      0.00%     10.05% # attempts to use FU when none available
system.switch_cpus1.iq.fu_full::SimdMult            0      0.00%     10.05% # attempts to use FU when none available
system.switch_cpus1.iq.fu_full::SimdMultAcc            0      0.00%     10.05% # attempts to use FU when none available
system.switch_cpus1.iq.fu_full::SimdShift            0      0.00%     10.05% # attempts to use FU when none available
system.switch_cpus1.iq.fu_full::SimdShiftAcc            0      0.00%     10.05% # attempts to use FU when none available
system.switch_cpus1.iq.fu_full::SimdSqrt            0      0.00%     10.05% # attempts to use FU when none available
system.switch_cpus1.iq.fu_full::SimdFloatAdd            0      0.00%     10.05% # attempts to use FU when none available
system.switch_cpus1.iq.fu_full::SimdFloatAlu            0      0.00%     10.05% # attempts to use FU when none available
system.switch_cpus1.iq.fu_full::SimdFloatCmp            0      0.00%     10.05% # attempts to use FU when none available
system.switch_cpus1.iq.fu_full::SimdFloatCvt            0      0.00%     10.05% # attempts to use FU when none available
system.switch_cpus1.iq.fu_full::SimdFloatDiv            0      0.00%     10.05% # attempts to use FU when none available
system.switch_cpus1.iq.fu_full::SimdFloatMisc            0      0.00%     10.05% # attempts to use FU when none available
system.switch_cpus1.iq.fu_full::SimdFloatMult            0      0.00%     10.05% # attempts to use FU when none available
system.switch_cpus1.iq.fu_full::SimdFloatMultAcc            0      0.00%     10.05% # attempts to use FU when none available
system.switch_cpus1.iq.fu_full::SimdFloatSqrt            0      0.00%     10.05% # attempts to use FU when none available
system.switch_cpus1.iq.fu_full::MemRead         87598     36.98%     47.03% # attempts to use FU when none available
system.switch_cpus1.iq.fu_full::MemWrite       125473     52.97%    100.00% # attempts to use FU when none available
system.switch_cpus1.iq.fu_full::IprAccess            0      0.00%    100.00% # attempts to use FU when none available
system.switch_cpus1.iq.fu_full::InstPrefetch            0      0.00%    100.00% # attempts to use FU when none available
system.switch_cpus1.iq.FU_type_0::No_OpClass            0      0.00%      0.00% # Type of FU issued
system.switch_cpus1.iq.FU_type_0::IntAlu    111856170     83.78%     83.78% # Type of FU issued
system.switch_cpus1.iq.FU_type_0::IntMult      2069688      1.55%     85.33% # Type of FU issued
system.switch_cpus1.iq.FU_type_0::IntDiv            0      0.00%     85.33% # Type of FU issued
system.switch_cpus1.iq.FU_type_0::FloatAdd            0      0.00%     85.33% # Type of FU issued
system.switch_cpus1.iq.FU_type_0::FloatCmp            0      0.00%     85.33% # Type of FU issued
system.switch_cpus1.iq.FU_type_0::FloatCvt            0      0.00%     85.33% # Type of FU issued
system.switch_cpus1.iq.FU_type_0::FloatMult            0      0.00%     85.33% # Type of FU issued
system.switch_cpus1.iq.FU_type_0::FloatDiv            0      0.00%     85.33% # Type of FU issued
system.switch_cpus1.iq.FU_type_0::FloatSqrt            0      0.00%     85.33% # Type of FU issued
system.switch_cpus1.iq.FU_type_0::SimdAdd            0      0.00%     85.33% # Type of FU issued
system.switch_cpus1.iq.FU_type_0::SimdAddAcc            0      0.00%     85.33% # Type of FU issued
system.switch_cpus1.iq.FU_type_0::SimdAlu            0      0.00%     85.33% # Type of FU issued
system.switch_cpus1.iq.FU_type_0::SimdCmp            0      0.00%     85.33% # Type of FU issued
system.switch_cpus1.iq.FU_type_0::SimdCvt            0      0.00%     85.33% # Type of FU issued
system.switch_cpus1.iq.FU_type_0::SimdMisc            0      0.00%     85.33% # Type of FU issued
system.switch_cpus1.iq.FU_type_0::SimdMult            0      0.00%     85.33% # Type of FU issued
system.switch_cpus1.iq.FU_type_0::SimdMultAcc            0      0.00%     85.33% # Type of FU issued
system.switch_cpus1.iq.FU_type_0::SimdShift            0      0.00%     85.33% # Type of FU issued
system.switch_cpus1.iq.FU_type_0::SimdShiftAcc            0      0.00%     85.33% # Type of FU issued
system.switch_cpus1.iq.FU_type_0::SimdSqrt            0      0.00%     85.33% # Type of FU issued
system.switch_cpus1.iq.FU_type_0::SimdFloatAdd            0      0.00%     85.33% # Type of FU issued
system.switch_cpus1.iq.FU_type_0::SimdFloatAlu            0      0.00%     85.33% # Type of FU issued
system.switch_cpus1.iq.FU_type_0::SimdFloatCmp            0      0.00%     85.33% # Type of FU issued
system.switch_cpus1.iq.FU_type_0::SimdFloatCvt            0      0.00%     85.33% # Type of FU issued
system.switch_cpus1.iq.FU_type_0::SimdFloatDiv            0      0.00%     85.33% # Type of FU issued
system.switch_cpus1.iq.FU_type_0::SimdFloatMisc        16528      0.01%     85.34% # Type of FU issued
system.switch_cpus1.iq.FU_type_0::SimdFloatMult            0      0.00%     85.34% # Type of FU issued
system.switch_cpus1.iq.FU_type_0::SimdFloatMultAcc            0      0.00%     85.34% # Type of FU issued
system.switch_cpus1.iq.FU_type_0::SimdFloatSqrt            0      0.00%     85.34% # Type of FU issued
system.switch_cpus1.iq.FU_type_0::MemRead     12284304      9.20%     94.54% # Type of FU issued
system.switch_cpus1.iq.FU_type_0::MemWrite      7285730      5.46%    100.00% # Type of FU issued
system.switch_cpus1.iq.FU_type_0::IprAccess            0      0.00%    100.00% # Type of FU issued
system.switch_cpus1.iq.FU_type_0::InstPrefetch            0      0.00%    100.00% # Type of FU issued
system.switch_cpus1.iq.FU_type_0::total     133512420                       # Type of FU issued
system.switch_cpus1.iq.rate                  0.534113                       # Inst issue rate
system.switch_cpus1.iq.fu_busy_cnt             236889                       # FU busy when requested
system.switch_cpus1.iq.fu_busy_rate          0.001774                       # FU busy rate (busy events/executed inst)
system.switch_cpus1.iq.int_inst_queue_reads    497069738                       # Number of integer instruction queue reads
system.switch_cpus1.iq.int_inst_queue_writes    156831529                       # Number of integer instruction queue writes
system.switch_cpus1.iq.int_inst_queue_wakeup_accesses    131505687                       # Number of integer instruction queue wakeup accesses
system.switch_cpus1.iq.fp_inst_queue_reads            0                       # Number of floating instruction queue reads
system.switch_cpus1.iq.fp_inst_queue_writes            0                       # Number of floating instruction queue writes
system.switch_cpus1.iq.fp_inst_queue_wakeup_accesses            0                       # Number of floating instruction queue wakeup accesses
system.switch_cpus1.iq.int_alu_accesses     133749309                       # Number of integer alu accesses
system.switch_cpus1.iq.fp_alu_accesses              0                       # Number of floating point alu accesses
system.switch_cpus1.iew.lsq.thread0.forwLoads       312772                       # Number of loads that had data forwarded from stores
system.switch_cpus1.iew.lsq.thread0.invAddrLoads            0                       # Number of loads ignored due to an invalid address
system.switch_cpus1.iew.lsq.thread0.squashedLoads      2212416                       # Number of loads squashed
system.switch_cpus1.iew.lsq.thread0.ignoredResponses           38                       # Number of memory responses ignored because the instruction is squashed
system.switch_cpus1.iew.lsq.thread0.memOrderViolation          344                       # Number of memory ordering violations
system.switch_cpus1.iew.lsq.thread0.squashedStores       178978                       # Number of stores squashed
system.switch_cpus1.iew.lsq.thread0.invAddrSwpfs            0                       # Number of software prefetches ignored due to an invalid address
system.switch_cpus1.iew.lsq.thread0.blockedLoads            0                       # Number of blocked loads due to partial load-store forwarding
system.switch_cpus1.iew.lsq.thread0.rescheduledLoads            0                       # Number of loads that were rescheduled
system.switch_cpus1.iew.lsq.thread0.cacheBlocked           97                       # Number of times an access to memory failed due to the cache being blocked
system.switch_cpus1.iew.iewIdleCycles               0                       # Number of cycles IEW is idle
system.switch_cpus1.iew.iewSquashCycles       3509374                       # Number of cycles IEW is squashing
system.switch_cpus1.iew.iewBlockCycles        1054661                       # Number of cycles IEW is blocking
system.switch_cpus1.iew.iewUnblockCycles       125073                       # Number of cycles IEW is unblocking
system.switch_cpus1.iew.iewDispatchedInsts    140808913                       # Number of instructions dispatched to IQ
system.switch_cpus1.iew.iewDispSquashedInsts        64613                       # Number of squashed instructions skipped by dispatch
system.switch_cpus1.iew.iewDispLoadInsts     13384942                       # Number of dispatched load instructions
system.switch_cpus1.iew.iewDispStoreInsts      7340110                       # Number of dispatched store instructions
system.switch_cpus1.iew.iewDispNonSpecInsts        22695                       # Number of dispatched non-speculative instructions
system.switch_cpus1.iew.iewIQFullEvents         92199                       # Number of times the IQ has become full, causing a stall
system.switch_cpus1.iew.iewLSQFullEvents            0                       # Number of times the LSQ has become full, causing a stall
system.switch_cpus1.iew.memOrderViolationEvents          344                       # Number of memory order violations
system.switch_cpus1.iew.predictedTakenIncorrect      1160705                       # Number of branches that were predicted taken incorrectly
system.switch_cpus1.iew.predictedNotTakenIncorrect      1137021                       # Number of branches that were predicted not taken incorrectly
system.switch_cpus1.iew.branchMispredicts      2297726                       # Number of branch mispredicts detected at execute
system.switch_cpus1.iew.iewExecutedInsts    131696897                       # Number of executed instructions
system.switch_cpus1.iew.iewExecLoadInsts     11583352                       # Number of load instructions executed
system.switch_cpus1.iew.iewExecSquashedInsts      1815523                       # Number of squashed instructions skipped in execute
system.switch_cpus1.iew.exec_swp                    0                       # number of swp insts executed
system.switch_cpus1.iew.exec_nop                    0                       # number of nop insts executed
system.switch_cpus1.iew.exec_refs            18867456                       # number of memory reference insts executed
system.switch_cpus1.iew.exec_branches        18615822                       # Number of branches executed
system.switch_cpus1.iew.exec_stores           7284104                       # Number of stores executed
system.switch_cpus1.iew.exec_rate            0.526851                       # Inst execution rate
system.switch_cpus1.iew.wb_sent             131505875                       # cumulative count of insts sent to commit
system.switch_cpus1.iew.wb_count            131505687                       # cumulative count of insts written-back
system.switch_cpus1.iew.wb_producers         75695843                       # num instructions producing a value
system.switch_cpus1.iew.wb_consumers        202779086                       # num instructions consuming a value
system.switch_cpus1.iew.wb_penalized                0                       # number of instrctions required to write to 'other' IQ
system.switch_cpus1.iew.wb_rate              0.526086                       # insts written-back per cycle
system.switch_cpus1.iew.wb_fanout            0.373292                       # average fanout of values written-back
system.switch_cpus1.iew.wb_penalized_rate            0                       # fraction of instructions written-back that wrote to 'other' IQ
system.switch_cpus1.commit.commitCommittedInsts     99156396                       # The number of committed instructions
system.switch_cpus1.commit.commitCommittedOps    121867367                       # The number of committed instructions
system.switch_cpus1.commit.commitSquashedInsts     18948454                       # The number of squashed insts skipped by commit
system.switch_cpus1.commit.commitNonSpecStalls        33056                       # The number of times commit has been forced to stall to communicate backwards
system.switch_cpus1.commit.branchMispredicts      2028790                       # The number of times a branch was mispredicted
system.switch_cpus1.commit.committed_per_cycle::samples    226272211                       # Number of insts commited each cycle
system.switch_cpus1.commit.committed_per_cycle::mean     0.538587                       # Number of insts commited each cycle
system.switch_cpus1.commit.committed_per_cycle::stdev     1.388366                       # Number of insts commited each cycle
system.switch_cpus1.commit.committed_per_cycle::underflows            0      0.00%      0.00% # Number of insts commited each cycle
system.switch_cpus1.commit.committed_per_cycle::0    176449165     77.98%     77.98% # Number of insts commited each cycle
system.switch_cpus1.commit.committed_per_cycle::1     24567081     10.86%     88.84% # Number of insts commited each cycle
system.switch_cpus1.commit.committed_per_cycle::2      9335726      4.13%     92.96% # Number of insts commited each cycle
system.switch_cpus1.commit.committed_per_cycle::3      4505023      1.99%     94.96% # Number of insts commited each cycle
system.switch_cpus1.commit.committed_per_cycle::4      3727921      1.65%     96.60% # Number of insts commited each cycle
system.switch_cpus1.commit.committed_per_cycle::5      2228132      0.98%     97.59% # Number of insts commited each cycle
system.switch_cpus1.commit.committed_per_cycle::6      1888015      0.83%     98.42% # Number of insts commited each cycle
system.switch_cpus1.commit.committed_per_cycle::7       835853      0.37%     98.79% # Number of insts commited each cycle
system.switch_cpus1.commit.committed_per_cycle::8      2735295      1.21%    100.00% # Number of insts commited each cycle
system.switch_cpus1.commit.committed_per_cycle::overflows            0      0.00%    100.00% # Number of insts commited each cycle
system.switch_cpus1.commit.committed_per_cycle::min_value            0                       # Number of insts commited each cycle
system.switch_cpus1.commit.committed_per_cycle::max_value            8                       # Number of insts commited each cycle
system.switch_cpus1.commit.committed_per_cycle::total    226272211                       # Number of insts commited each cycle
system.switch_cpus1.commit.committedInsts     99156396                       # Number of instructions committed
system.switch_cpus1.commit.committedOps     121867367                       # Number of ops (including micro ops) committed
system.switch_cpus1.commit.swp_count                0                       # Number of s/w prefetches committed
system.switch_cpus1.commit.refs              18333658                       # Number of memory references committed
system.switch_cpus1.commit.loads             11172526                       # Number of loads committed
system.switch_cpus1.commit.membars              16528                       # Number of memory barriers committed
system.switch_cpus1.commit.branches          17478606                       # Number of branches committed
system.switch_cpus1.commit.fp_insts                 0                       # Number of committed floating point instructions.
system.switch_cpus1.commit.int_insts        109846920                       # Number of committed integer instructions.
system.switch_cpus1.commit.function_calls      2486615                       # Number of function calls committed.
system.switch_cpus1.commit.bw_lim_events      2735295                       # number cycles where commit BW limit reached
system.switch_cpus1.commit.bw_limited               0                       # number of insts not committed due to BW limits
system.switch_cpus1.rob.rob_reads           364352737                       # The number of ROB reads
system.switch_cpus1.rob.rob_writes          285141240                       # The number of ROB writes
system.switch_cpus1.timesIdled                3071369                       # Number of times that the entire CPU went into an idle state and unscheduled itself
system.switch_cpus1.idleCycles               20188555                       # Total number of cycles that the CPU has spent unscheduled due to idling
system.switch_cpus1.committedInsts           99156396                       # Number of Instructions Simulated
system.switch_cpus1.committedOps            121867367                       # Number of Ops (including micro ops) Simulated
system.switch_cpus1.committedInsts_total     99156396                       # Number of Instructions Simulated
system.switch_cpus1.cpi                      2.520968                       # CPI: Cycles Per Instruction
system.switch_cpus1.cpi_total                2.520968                       # CPI: Total CPI of All Threads
system.switch_cpus1.ipc                      0.396673                       # IPC: Instructions Per Cycle
system.switch_cpus1.ipc_total                0.396673                       # IPC: Total IPC of All Threads
[...]
system.cpu1.icache.ReadReq_avg_miss_latency::total 190311.368421                       # average ReadReq miss latency
system.cpu1.icache.demand_avg_miss_latency::switch_cpus1.inst 190311.368421                       # average overall miss latency
system.cpu1.icache.demand_avg_miss_latency::total 190311.368421                       # average overall miss latency
system.cpu1.icache.overall_avg_miss_latency::switch_cpus1.inst 190311.368421                       # average overall miss latency
system.cpu1.icache.overall_avg_miss_latency::total 190311.368421                       # average overall miss latency
system.cpu1.icache.blocked_cycles::no_mshrs            0                       # number of cycles access was blocked
system.cpu1.icache.blocked_cycles::no_targets            0                       # number of cycles access was blocked
system.cpu1.icache.blocked::no_mshrs                0                       # number of cycles access was blocked
system.cpu1.icache.blocked::no_targets              0                       # number of cycles access was blocked
system.cpu1.icache.avg_blocked_cycles::no_mshrs          nan                       # average number of cycles each access was blocked
system.cpu1.icache.avg_blocked_cycles::no_targets          nan                       # average number of cycles each access was blocked
system.cpu1.icache.fast_writes                      0                       # number of fast writes performed
system.cpu1.icache.cache_copies                     0                       # number of cache copies performed
system.cpu1.icache.ReadReq_mshr_hits::switch_cpus1.inst            6                       # number of ReadReq MSHR hits
system.cpu1.icache.ReadReq_mshr_hits::total            6                       # number of ReadReq MSHR hits
system.cpu1.icache.demand_mshr_hits::switch_cpus1.inst            6                       # number of demand (read+write) MSHR hits
system.cpu1.icache.demand_mshr_hits::total            6                       # number of demand (read+write) MSHR hits
system.cpu1.icache.overall_mshr_hits::switch_cpus1.inst            6                       # number of overall MSHR hits
system.cpu1.icache.overall_mshr_hits::total            6                       # number of overall MSHR hits
system.cpu1.icache.ReadReq_mshr_misses::switch_cpus1.inst           13                       # number of ReadReq MSHR misses
system.cpu1.icache.ReadReq_mshr_misses::total           13                       # number of ReadReq MSHR misses
system.cpu1.icache.demand_mshr_misses::switch_cpus1.inst           13                       # number of demand (read+write) MSHR misses
system.cpu1.icache.demand_mshr_misses::total           13                       # number of demand (read+write) MSHR misses
system.cpu1.icache.overall_mshr_misses::switch_cpus1.inst           13                       # number of overall MSHR misses
system.cpu1.icache.overall_mshr_misses::total           13                       # number of overall MSHR misses
system.cpu1.icache.ReadReq_mshr_miss_latency::switch_cpus1.inst      2456469                       # number of ReadReq MSHR miss cycles
system.cpu1.icache.ReadReq_mshr_miss_latency::total      2456469                       # number of ReadReq MSHR miss cycles
system.cpu1.icache.demand_mshr_miss_latency::switch_cpus1.inst      2456469                       # number of demand (read+write) MSHR miss cycles
system.cpu1.icache.demand_mshr_miss_latency::total      2456469                       # number of demand (read+write) MSHR miss cycles
system.cpu1.icache.overall_mshr_miss_latency::switch_cpus1.inst      2456469                       # number of overall MSHR miss cycles
system.cpu1.icache.overall_mshr_miss_latency::total      2456469                       # number of overall MSHR miss cycles
system.cpu1.icache.ReadReq_mshr_miss_rate::switch_cpus1.inst     0.000001                       # mshr miss rate for ReadReq accesses
system.cpu1.icache.ReadReq_mshr_miss_rate::total     0.000001                       # mshr miss rate for ReadReq accesses
system.cpu1.icache.demand_mshr_miss_rate::switch_cpus1.inst     0.000001                       # mshr miss rate for demand accesses
system.cpu1.icache.demand_mshr_miss_rate::total     0.000001                       # mshr miss rate for demand accesses
system.cpu1.icache.overall_mshr_miss_rate::switch_cpus1.inst     0.000001                       # mshr miss rate for overall accesses
system.cpu1.icache.overall_mshr_miss_rate::total     0.000001                       # mshr miss rate for overall accesses
system.cpu1.icache.ReadReq_avg_mshr_miss_latency::switch_cpus1.inst 188959.153846                       # average ReadReq mshr miss latency
system.cpu1.icache.ReadReq_avg_mshr_miss_latency::total 188959.153846                       # average ReadReq mshr miss latency
system.cpu1.icache.demand_avg_mshr_miss_latency::switch_cpus1.inst 188959.153846                       # average overall mshr miss latency
system.cpu1.icache.demand_avg_mshr_miss_latency::total 188959.153846                       # average overall mshr miss latency
system.cpu1.icache.overall_avg_mshr_miss_latency::switch_cpus1.inst 188959.153846                       # average overall mshr miss latency
system.cpu1.icache.overall_avg_mshr_miss_latency::total 188959.153846                       # average overall mshr miss latency
system.cpu1.icache.no_allocate_misses               0                       # Number of misses that were no-allocate
system.cpu1.dcache.replacements                 51991                       # number of replacements
system.cpu1.dcache.tagsinuse                      256                       # Cycle average of tags in use
system.cpu1.dcache.total_refs               172214245                       # Total number of references to valid blocks.
system.cpu1.dcache.sampled_refs                 52247                       # Sample count of references to valid blocks.
system.cpu1.dcache.avg_refs               3296.155664                       # Average number of references to valid blocks.
system.cpu1.dcache.warmup_cycle                     0                       # Cycle when the warmup percentage was hit.
system.cpu1.dcache.occ_blocks::switch_cpus1.data   233.219441                       # Average occupied blocks per requestor
system.cpu1.dcache.occ_blocks::cpu1.data    22.780559                       # Average occupied blocks per requestor
system.cpu1.dcache.occ_percent::switch_cpus1.data     0.911013                       # Average percentage of cache occupancy
system.cpu1.dcache.occ_percent::cpu1.data     0.088987                       # Average percentage of cache occupancy
system.cpu1.dcache.occ_percent::total               1                       # Average percentage of cache occupancy
system.cpu1.dcache.ReadReq_hits::switch_cpus1.data      8497683                       # number of ReadReq hits
system.cpu1.dcache.ReadReq_hits::total        8497683                       # number of ReadReq hits
system.cpu1.dcache.WriteReq_hits::switch_cpus1.data      7124157                       # number of WriteReq hits
system.cpu1.dcache.WriteReq_hits::total       7124157                       # number of WriteReq hits
system.cpu1.dcache.LoadLockedReq_hits::switch_cpus1.data        17433                       # number of LoadLockedReq hits
system.cpu1.dcache.LoadLockedReq_hits::total        17433                       # number of LoadLockedReq hits
system.cpu1.dcache.StoreCondReq_hits::switch_cpus1.data        16528                       # number of StoreCondReq hits
system.cpu1.dcache.StoreCondReq_hits::total        16528                       # number of StoreCondReq hits
system.cpu1.dcache.demand_hits::switch_cpus1.data     15621840                       # number of demand (read+write) hits
system.cpu1.dcache.demand_hits::total        15621840                       # number of demand (read+write) hits
system.cpu1.dcache.overall_hits::switch_cpus1.data     15621840                       # number of overall hits
system.cpu1.dcache.overall_hits::total       15621840                       # number of overall hits
system.cpu1.dcache.ReadReq_misses::switch_cpus1.data       149838                       # number of ReadReq misses
system.cpu1.dcache.ReadReq_misses::total       149838                       # number of ReadReq misses
system.cpu1.dcache.WriteReq_misses::switch_cpus1.data         2924                       # number of WriteReq misses
system.cpu1.dcache.WriteReq_misses::total         2924                       # number of WriteReq misses
system.cpu1.dcache.demand_misses::switch_cpus1.data       152762                       # number of demand (read+write) misses
system.cpu1.dcache.demand_misses::total        152762                       # number of demand (read+write) misses
system.cpu1.dcache.overall_misses::switch_cpus1.data       152762                       # number of overall misses
system.cpu1.dcache.overall_misses::total       152762                       # number of overall misses
system.cpu1.dcache.ReadReq_miss_latency::switch_cpus1.data  17017534274                       # number of ReadReq miss cycles
system.cpu1.dcache.ReadReq_miss_latency::total  17017534274                       # number of ReadReq miss cycles
system.cpu1.dcache.WriteReq_miss_latency::switch_cpus1.data    517308882                       # number of WriteReq miss cycles
system.cpu1.dcache.WriteReq_miss_latency::total    517308882                       # number of WriteReq miss cycles
system.cpu1.dcache.demand_miss_latency::switch_cpus1.data  17534843156                       # number of demand (read+write) miss cycles
system.cpu1.dcache.demand_miss_latency::total  17534843156                       # number of demand (read+write) miss cycles
system.cpu1.dcache.overall_miss_latency::switch_cpus1.data  17534843156                       # number of overall miss cycles
system.cpu1.dcache.overall_miss_latency::total  17534843156                       # number of overall miss cycles
system.cpu1.dcache.ReadReq_accesses::switch_cpus1.data      8647521                       # number of ReadReq accesses(hits+misses)
system.cpu1.dcache.ReadReq_accesses::total      8647521                       # number of ReadReq accesses(hits+misses)
system.cpu1.dcache.WriteReq_accesses::switch_cpus1.data      7127081                       # number of WriteReq accesses(hits+misses)
system.cpu1.dcache.WriteReq_accesses::total      7127081                       # number of WriteReq accesses(hits+misses)
system.cpu1.dcache.LoadLockedReq_accesses::switch_cpus1.data        17433                       # number of LoadLockedReq accesses(hits+misses)
system.cpu1.dcache.LoadLockedReq_accesses::total        17433                       # number of LoadLockedReq accesses(hits+misses)
system.cpu1.dcache.StoreCondReq_accesses::switch_cpus1.data        16528                       # number of StoreCondReq accesses(hits+misses)
system.cpu1.dcache.StoreCondReq_accesses::total        16528                       # number of StoreCondReq accesses(hits+misses)
system.cpu1.dcache.demand_accesses::switch_cpus1.data     15774602                       # number of demand (read+write) accesses
system.cpu1.dcache.demand_accesses::total     15774602                       # number of demand (read+write) accesses
system.cpu1.dcache.overall_accesses::switch_cpus1.data     15774602                       # number of overall (read+write) accesses
system.cpu1.dcache.overall_accesses::total     15774602                       # number of overall (read+write) accesses
system.cpu1.dcache.ReadReq_miss_rate::switch_cpus1.data     0.017327                       # miss rate for ReadReq accesses
system.cpu1.dcache.ReadReq_miss_rate::total     0.017327                       # miss rate for ReadReq accesses
system.cpu1.dcache.WriteReq_miss_rate::switch_cpus1.data     0.000410                       # miss rate for WriteReq accesses
system.cpu1.dcache.WriteReq_miss_rate::total     0.000410                       # miss rate for WriteReq accesses
system.cpu1.dcache.demand_miss_rate::switch_cpus1.data     0.009684                       # miss rate for demand accesses
system.cpu1.dcache.demand_miss_rate::total     0.009684                       # miss rate for demand accesses
system.cpu1.dcache.overall_miss_rate::switch_cpus1.data     0.009684                       # miss rate for overall accesses
system.cpu1.dcache.overall_miss_rate::total     0.009684                       # miss rate for overall accesses
system.cpu1.dcache.ReadReq_avg_miss_latency::switch_cpus1.data 113572.887212                       # average ReadReq miss latency
system.cpu1.dcache.ReadReq_avg_miss_latency::total 113572.887212                       # average ReadReq miss latency
system.cpu1.dcache.WriteReq_avg_miss_latency::switch_cpus1.data 176918.222298                       # average WriteReq miss latency
system.cpu1.dcache.WriteReq_avg_miss_latency::total 176918.222298                       # average WriteReq miss latency
system.cpu1.dcache.demand_avg_miss_latency::switch_cpus1.data 114785.373038                       # average overall miss latency
system.cpu1.dcache.demand_avg_miss_latency::total 114785.373038                       # average overall miss latency
system.cpu1.dcache.overall_avg_miss_latency::switch_cpus1.data 114785.373038                       # average overall miss latency
system.cpu1.dcache.overall_avg_miss_latency::total 114785.373038                       # average overall miss latency
system.cpu1.dcache.blocked_cycles::no_mshrs            0                       # number of cycles access was blocked
system.cpu1.dcache.blocked_cycles::no_targets      1035675                       # number of cycles access was blocked
system.cpu1.dcache.blocked::no_mshrs                0                       # number of cycles access was blocked
system.cpu1.dcache.blocked::no_targets              9                       # number of cycles access was blocked
system.cpu1.dcache.avg_blocked_cycles::no_mshrs          nan                       # average number of cycles each access was blocked
system.cpu1.dcache.avg_blocked_cycles::no_targets       115075                       # average number of cycles each access was blocked
system.cpu1.dcache.fast_writes                      0                       # number of fast writes performed
system.cpu1.dcache.cache_copies                     0                       # number of cache copies performed
system.cpu1.dcache.writebacks::writebacks        25021                       # number of writebacks
system.cpu1.dcache.writebacks::total            25021                       # number of writebacks
system.cpu1.dcache.ReadReq_mshr_hits::switch_cpus1.data        97850                       # number of ReadReq MSHR hits
system.cpu1.dcache.ReadReq_mshr_hits::total        97850                       # number of ReadReq MSHR hits
system.cpu1.dcache.WriteReq_mshr_hits::switch_cpus1.data         2921                       # number of WriteReq MSHR hits
system.cpu1.dcache.WriteReq_mshr_hits::total         2921                       # number of WriteReq MSHR hits
system.cpu1.dcache.demand_mshr_hits::switch_cpus1.data       100771                       # number of demand (read+write) MSHR hits
system.cpu1.dcache.demand_mshr_hits::total       100771                       # number of demand (read+write) MSHR hits
system.cpu1.dcache.overall_mshr_hits::switch_cpus1.data       100771                       # number of overall MSHR hits
system.cpu1.dcache.overall_mshr_hits::total       100771                       # number of overall MSHR hits
system.cpu1.dcache.ReadReq_mshr_misses::switch_cpus1.data        51988                       # number of ReadReq MSHR misses
system.cpu1.dcache.ReadReq_mshr_misses::total        51988                       # number of ReadReq MSHR misses
system.cpu1.dcache.WriteReq_mshr_misses::switch_cpus1.data            3                       # number of WriteReq MSHR misses
system.cpu1.dcache.WriteReq_mshr_misses::total            3                       # number of WriteReq MSHR misses
system.cpu1.dcache.demand_mshr_misses::switch_cpus1.data        51991                       # number of demand (read+write) MSHR misses
system.cpu1.dcache.demand_mshr_misses::total        51991                       # number of demand (read+write) MSHR misses
system.cpu1.dcache.overall_mshr_misses::switch_cpus1.data        51991                       # number of overall MSHR misses
system.cpu1.dcache.overall_mshr_misses::total        51991                       # number of overall MSHR misses
system.cpu1.dcache.ReadReq_mshr_miss_latency::switch_cpus1.data   4825704578                       # number of ReadReq MSHR miss cycles
system.cpu1.dcache.ReadReq_mshr_miss_latency::total   4825704578                       # number of ReadReq MSHR miss cycles
system.cpu1.dcache.WriteReq_mshr_miss_latency::switch_cpus1.data       575945                       # number of WriteReq MSHR miss cycles
system.cpu1.dcache.WriteReq_mshr_miss_latency::total       575945                       # number of WriteReq MSHR miss cycles
system.cpu1.dcache.demand_mshr_miss_latency::switch_cpus1.data   4826280523                       # number of demand (read+write) MSHR miss cycles
system.cpu1.dcache.demand_mshr_miss_latency::total   4826280523                       # number of demand (read+write) MSHR miss cycles
system.cpu1.dcache.overall_mshr_miss_latency::switch_cpus1.data   4826280523                       # number of overall MSHR miss cycles
system.cpu1.dcache.overall_mshr_miss_latency::total   4826280523                       # number of overall MSHR miss cycles
system.cpu1.dcache.ReadReq_mshr_miss_rate::switch_cpus1.data     0.006012                       # mshr miss rate for ReadReq accesses
system.cpu1.dcache.ReadReq_mshr_miss_rate::total     0.006012                       # mshr miss rate for ReadReq accesses
system.cpu1.dcache.WriteReq_mshr_miss_rate::switch_cpus1.data     0.000000                       # mshr miss rate for WriteReq accesses
system.cpu1.dcache.WriteReq_mshr_miss_rate::total     0.000000                       # mshr miss rate for WriteReq accesses
system.cpu1.dcache.demand_mshr_miss_rate::switch_cpus1.data     0.003296                       # mshr miss rate for demand accesses
system.cpu1.dcache.demand_mshr_miss_rate::total     0.003296                       # mshr miss rate for demand accesses
system.cpu1.dcache.overall_mshr_miss_rate::switch_cpus1.data     0.003296                       # mshr miss rate for overall accesses
system.cpu1.dcache.overall_mshr_miss_rate::total     0.003296                       # mshr miss rate for overall accesses
system.cpu1.dcache.ReadReq_avg_mshr_miss_latency::switch_cpus1.data 92823.431907                       # average ReadReq mshr miss latency
system.cpu1.dcache.ReadReq_avg_mshr_miss_latency::total 92823.431907                       # average ReadReq mshr miss latency
system.cpu1.dcache.WriteReq_avg_mshr_miss_latency::switch_cpus1.data 191981.666667                       # average WriteReq mshr miss latency
system.cpu1.dcache.WriteReq_avg_mshr_miss_latency::total 191981.666667                       # average WriteReq mshr miss latency
system.cpu1.dcache.demand_avg_mshr_miss_latency::switch_cpus1.data 92829.153565                       # average overall mshr miss latency
system.cpu1.dcache.demand_avg_mshr_miss_latency::total 92829.153565                       # average overall mshr miss latency
system.cpu1.dcache.overall_avg_mshr_miss_latency::switch_cpus1.data 92829.153565                       # average overall mshr miss latency
system.cpu1.dcache.overall_avg_mshr_miss_latency::total 92829.153565                       # average overall mshr miss latency
system.cpu1.dcache.no_allocate_misses               0                       # Number of misses that were no-allocate

---------- End Simulation Statistics   ----------
