
---------- Begin Simulation Statistics ----------
sim_seconds                                  0.122121                       # Number of seconds simulated
sim_ticks                                122120978728                       # Number of ticks simulated
final_tick                               1176687505819                       # Number of ticks from beginning of simulation (restored from checkpoints and never reset)
sim_freq                                 1000000000000                       # Frequency of simulated ticks
host_inst_rate                                 101908                       # Simulator instruction rate (inst/s)
host_op_rate                                   131990                       # Simulator op (including micro ops) rate (op/s)
host_tick_rate                                3875330                       # Simulator tick rate (ticks/s)
host_mem_usage                               16907068                       # Number of bytes of host memory used
host_seconds                                 31512.41                       # Real time elapsed on the host
sim_insts                                  3211353930                       # Number of instructions simulated
sim_ops                                    4159333276                       # Number of ops (including micro ops) simulated
system.physmem.bytes_read::switch_cpus0.inst         1664                       # Number of bytes read from this memory
system.physmem.bytes_read::switch_cpus0.data      1179008                       # Number of bytes read from this memory
system.physmem.bytes_read::switch_cpus1.inst         1664                       # Number of bytes read from this memory
system.physmem.bytes_read::switch_cpus1.data      2163456                       # Number of bytes read from this memory
system.physmem.bytes_read::switch_cpus2.inst         1792                       # Number of bytes read from this memory
system.physmem.bytes_read::switch_cpus2.data      1665280                       # Number of bytes read from this memory
system.physmem.bytes_read::total              5012864                       # Number of bytes read from this memory
system.physmem.bytes_inst_read::switch_cpus0.inst         1664                       # Number of instructions bytes read from this memory
system.physmem.bytes_inst_read::switch_cpus1.inst         1664                       # Number of instructions bytes read from this memory
system.physmem.bytes_inst_read::switch_cpus2.inst         1792                       # Number of instructions bytes read from this memory
system.physmem.bytes_inst_read::total            5120                       # Number of instructions bytes read from this memory
system.physmem.bytes_written::writebacks      1564416                       # Number of bytes written to this memory
system.physmem.bytes_written::total           1564416                       # Number of bytes written to this memory
system.physmem.num_reads::switch_cpus0.inst           13                       # Number of read requests responded to by this memory
system.physmem.num_reads::switch_cpus0.data         9211                       # Number of read requests responded to by this memory
system.physmem.num_reads::switch_cpus1.inst           13                       # Number of read requests responded to by this memory
system.physmem.num_reads::switch_cpus1.data        16902                       # Number of read requests responded to by this memory
system.physmem.num_reads::switch_cpus2.inst           14                       # Number of read requests responded to by this memory
system.physmem.num_reads::switch_cpus2.data        13010                       # Number of read requests responded to by this memory
system.physmem.num_reads::total                 39163                       # Number of read requests responded to by this memory
system.physmem.num_writes::writebacks           12222                       # Number of write requests responded to by this memory
system.physmem.num_writes::functional               0                       # Number of write requests responded to by this memory
system.physmem.num_writes::interrupt                0                       # Number of write requests responded to by this memory
system.physmem.num_writes::switch_cpus0.dtb.walker            0                       # Number of write requests responded to by this memory
system.physmem.num_writes::switch_cpus0.itb.walker            0                       # Number of write requests responded to by this memory
system.physmem.num_writes::switch_cpus0.inst            0                       # Number of write requests responded to by this memory
system.physmem.num_writes::switch_cpus0.data            0                       # Number of write requests responded to by this memory
system.physmem.num_writes::switch_cpus1.dtb.walker            0                       # Number of write requests responded to by this memory
system.physmem.num_writes::switch_cpus1.itb.walker            0                       # Number of write requests responded to by this memory
system.physmem.num_writes::switch_cpus1.inst            0                       # Number of write requests responded to by this memory
system.physmem.num_writes::switch_cpus1.data            0                       # Number of write requests responded to by this memory
system.physmem.num_writes::switch_cpus2.dtb.walker            0                       # Number of write requests responded to by this memory
system.physmem.num_writes::switch_cpus2.itb.walker            0                       # Number of write requests responded to by this memory
system.physmem.num_writes::switch_cpus2.inst            0                       # Number of write requests responded to by this memory
system.physmem.num_writes::switch_cpus2.data            0                       # Number of write requests responded to by this memory
system.physmem.num_writes::cpu0.dtb.walker            0                       # Number of write requests responded to by this memory
system.physmem.num_writes::cpu0.itb.walker            0                       # Number of write requests responded to by this memory
system.physmem.num_writes::cpu0.inst                0                       # Number of write requests responded to by this memory
system.physmem.num_writes::cpu0.data                0                       # Number of write requests responded to by this memory
system.physmem.num_writes::cpu1.dtb.walker            0                       # Number of write requests responded to by this memory
system.physmem.num_writes::cpu1.itb.walker            0                       # Number of write requests responded to by this memory
system.physmem.num_writes::cpu1.inst                0                       # Number of write requests responded to by this memory
system.physmem.num_writes::cpu1.data                0                       # Number of write requests responded to by this memory
system.physmem.num_writes::cpu2.dtb.walker            0                       # Number of write requests responded to by this memory
system.physmem.num_writes::cpu2.itb.walker            0                       # Number of write requests responded to by this memory
system.physmem.num_writes::cpu2.inst                0                       # Number of write requests responded to by this memory
system.physmem.num_writes::cpu2.data                0                       # Number of write requests responded to by this memory
system.physmem.num_writes::total                12222                       # Number of write requests responded to by this memory
system.physmem.bw_read::switch_cpus0.inst        13626                       # Total read bandwidth from this memory (bytes/s)
system.physmem.bw_read::switch_cpus0.data      9654426                       # Total read bandwidth from this memory (bytes/s)
system.physmem.bw_read::switch_cpus1.inst        13626                       # Total read bandwidth from this memory (bytes/s)
system.physmem.bw_read::switch_cpus1.data     17715679                       # Total read bandwidth from this memory (bytes/s)
system.physmem.bw_read::switch_cpus2.inst        14674                       # Total read bandwidth from this memory (bytes/s)
system.physmem.bw_read::switch_cpus2.data     13636314                       # Total read bandwidth from this memory (bytes/s)
system.physmem.bw_read::total                41048344                       # Total read bandwidth from this memory (bytes/s)
system.physmem.bw_inst_read::switch_cpus0.inst        13626                       # Instruction read bandwidth from this memory (bytes/s)
system.physmem.bw_inst_read::switch_cpus1.inst        13626                       # Instruction read bandwidth from this memory (bytes/s)
system.physmem.bw_inst_read::switch_cpus2.inst        14674                       # Instruction read bandwidth from this memory (bytes/s)
system.physmem.bw_inst_read::total              41926                       # Instruction read bandwidth from this memory (bytes/s)
system.physmem.bw_write::writebacks          12810379                       # Write bandwidth from this memory (bytes/s)
system.physmem.bw_write::total               12810379                       # Write bandwidth from this memory (bytes/s)
system.physmem.bw_total::writebacks          12810379                       # Total bandwidth to/from this memory (bytes/s)
system.physmem.bw_total::switch_cpus0.inst        13626                       # Total bandwidth to/from this memory (bytes/s)
system.physmem.bw_total::switch_cpus0.data      9654426                       # Total bandwidth to/from this memory (bytes/s)
system.physmem.bw_total::switch_cpus1.inst        13626                       # Total bandwidth to/from this memory (bytes/s)
system.physmem.bw_total::switch_cpus1.data     17715679                       # Total bandwidth to/from this memory (bytes/s)
system.physmem.bw_total::switch_cpus2.inst        14674                       # Total bandwidth to/from this memory (bytes/s)
system.physmem.bw_total::switch_cpus2.data     13636314                       # Total bandwidth to/from this memory (bytes/s)
system.physmem.bw_total::total               53858723                       # Total bandwidth to/from this memory (bytes/s)
system.switch_cpus0.dtb.inst_hits                   0                       # ITB inst hits
system.switch_cpus0.dtb.inst_misses                 0                       # ITB inst misses
system.switch_cpus0.dtb.read_hits                   0                       # DTB read hits
system.switch_cpus0.dtb.read_misses                 0                       # DTB read misses
system.switch_cpus0.dtb.write_hits                  0                       # DTB write hits
system.switch_cpus0.dtb.write_misses                0                       # DTB write misses
system.switch_cpus0.dtb.flush_tlb                   0                       # Number of times complete TLB was flushed
system.switch_cpus0.dtb.flush_tlb_mva               0                       # Number of times TLB was flushed by MVA
system.switch_cpus0.dtb.flush_tlb_mva_asid            0                       # Number of times TLB was flushed by MVA & ASID
system.switch_cpus0.dtb.flush_tlb_asid              0                       # Number of times TLB was flushed by ASID
system.switch_cpus0.dtb.flush_entries               0                       # Number of entries that have been flushed from TLB
system.switch_cpus0.dtb.align_faults                0                       # Number of TLB faults due to alignment restrictions
system.switch_cpus0.dtb.prefetch_faults             0                       # Number of TLB faults due to prefetch
system.switch_cpus0.dtb.domain_faults               0                       # Number of TLB faults due to domain restrictions
system.switch_cpus0.dtb.perms_faults                0                       # Number of TLB faults due to permissions restrictions
system.switch_cpus0.dtb.read_accesses               0                       # DTB read accesses
system.switch_cpus0.dtb.write_accesses              0                       # DTB write accesses
system.switch_cpus0.dtb.inst_accesses               0                       # ITB inst accesses
system.switch_cpus0.dtb.hits                        0                       # DTB hits
system.switch_cpus0.dtb.misses                      0                       # DTB misses
system.switch_cpus0.dtb.accesses                    0                       # DTB accesses
system.switch_cpus0.itb.inst_hits                   0                       # ITB inst hits
system.switch_cpus0.itb.inst_misses                 0                       # ITB inst misses
system.switch_cpus0.itb.read_hits                   0                       # DTB read hits
system.switch_cpus0.itb.read_misses                 0                       # DTB read misses
system.switch_cpus0.itb.write_hits                  0                       # DTB write hits
system.switch_cpus0.itb.write_misses                0                       # DTB write misses
system.switch_cpus0.itb.flush_tlb                   0                       # Number of times complete TLB was flushed
system.switch_cpus0.itb.flush_tlb_mva               0                       # Number of times TLB was flushed by MVA
system.switch_cpus0.itb.flush_tlb_mva_asid            0                       # Number of times TLB was flushed by MVA & ASID
system.switch_cpus0.itb.flush_tlb_asid              0                       # Number of times TLB was flushed by ASID
system.switch_cpus0.itb.flush_entries               0                       # Number of entries that have been flushed from TLB
system.switch_cpus0.itb.align_faults                0                       # Number of TLB faults due to alignment restrictions
system.switch_cpus0.itb.prefetch_faults             0                       # Number of TLB faults due to prefetch
system.switch_cpus0.itb.domain_faults               0                       # Number of TLB faults due to domain restrictions
system.switch_cpus0.itb.perms_faults                0                       # Number of TLB faults due to permissions restrictions
system.switch_cpus0.itb.read_accesses               0                       # DTB read accesses
system.switch_cpus0.itb.write_accesses              0                       # DTB write accesses
system.switch_cpus0.itb.inst_accesses               0                       # ITB inst accesses
system.switch_cpus0.itb.hits                        0                       # DTB hits
system.switch_cpus0.itb.misses                      0                       # DTB misses
system.switch_cpus0.itb.accesses                    0                       # DTB accesses
system.cpu0.workload.num_syscalls                   0                       # Number of system calls
system.switch_cpus0.numCycles               146603817                       # number of cpu cycles simulated
system.switch_cpus0.numWorkItemsStarted             0                       # number of work items this cpu started
system.switch_cpus0.numWorkItemsCompleted            0                       # number of work items this cpu completed
system.switch_cpus0.BPredUnit.lookups        22781483                       # Number of BP lookups
system.switch_cpus0.BPredUnit.condPredicted     18781802                       # Number of conditional branches predicted
system.switch_cpus0.BPredUnit.condIncorrect      2030040                       # Number of conditional branches incorrect
system.switch_cpus0.BPredUnit.BTBLookups      9146032                       # Number of BTB lookups
system.switch_cpus0.BPredUnit.BTBHits         8711162                       # Number of BTB hits
system.switch_cpus0.BPredUnit.BTBCorrect            0                       # Number of correct BTB predictions (this stat may not work properly.
system.switch_cpus0.BPredUnit.usedRAS         2383374                       # Number of times the RAS was used to get a target.
system.switch_cpus0.BPredUnit.RASInCorrect        88934                       # Number of incorrect RAS predictions.
system.switch_cpus0.fetch.icacheStallCycles    110879430                       # Number of cycles fetch is stalled on an Icache miss
system.switch_cpus0.fetch.Insts             125182105                       # Number of instructions fetch has processed
system.switch_cpus0.fetch.Branches           22781483                       # Number of branches that fetch encountered
system.switch_cpus0.fetch.predictedBranches     11094536                       # Number of branches that fetch has predicted taken
system.switch_cpus0.fetch.Cycles             26133336                       # Number of cycles fetch has run and was not squashing or blocked
system.switch_cpus0.fetch.SquashCycles        6031017                       # Number of cycles fetch has spent squashing
system.switch_cpus0.fetch.BlockedCycles       3228782                       # Number of cycles fetch has spent blocked
system.switch_cpus0.fetch.CacheLines         12860626                       # Number of cache lines fetched
system.switch_cpus0.fetch.IcacheSquashes      1680901                       # Number of outstanding Icache misses that were squashed
system.switch_cpus0.fetch.rateDist::samples    144208731                       # Number of instructions fetched each cycle (Total)
system.switch_cpus0.fetch.rateDist::mean     1.065824                       # Number of instructions fetched each cycle (Total)
system.switch_cpus0.fetch.rateDist::stdev     2.486545                       # Number of instructions fetched each cycle (Total)
system.switch_cpus0.fetch.rateDist::underflows            0      0.00%      0.00% # Number of instructions fetched each cycle (Total)
system.switch_cpus0.fetch.rateDist::0       118075395     81.88%     81.88% # Number of instructions fetched each cycle (Total)
system.switch_cpus0.fetch.rateDist::1         1346026      0.93%     82.81% # Number of instructions fetched each cycle (Total)
system.switch_cpus0.fetch.rateDist::2         1913061      1.33%     84.14% # Number of instructions fetched each cycle (Total)
system.switch_cpus0.fetch.rateDist::3         2520717      1.75%     85.89% # Number of instructions fetched each cycle (Total)
system.switch_cpus0.fetch.rateDist::4         2832706      1.96%     87.85% # Number of instructions fetched each cycle (Total)
system.switch_cpus0.fetch.rateDist::5         2108002      1.46%     89.31% # Number of instructions fetched each cycle (Total)
system.switch_cpus0.fetch.rateDist::6         1208657      0.84%     90.15% # Number of instructions fetched each cycle (Total)
system.switch_cpus0.fetch.rateDist::7         1789242      1.24%     91.39% # Number of instructions fetched each cycle (Total)
system.switch_cpus0.fetch.rateDist::8        12414925      8.61%    100.00% # Number of instructions fetched each cycle (Total)
system.switch_cpus0.fetch.rateDist::overflows            0      0.00%    100.00% # Number of instructions fetched each cycle (Total)
system.switch_cpus0.fetch.rateDist::min_value            0                       # Number of instructions fetched each cycle (Total)
system.switch_cpus0.fetch.rateDist::max_value            8                       # Number of instructions fetched each cycle (Total)
system.switch_cpus0.fetch.rateDist::total    144208731                       # Number of instructions fetched each cycle (Total)
system.switch_cpus0.fetch.branchRate         0.155395                       # Number of branch fetches per cycle
system.switch_cpus0.fetch.rate               0.853880                       # Number of inst fetches per cycle
system.switch_cpus0.decode.IdleCycles       109655628                       # Number of cycles decode is idle
system.switch_cpus0.decode.BlockedCycles      4862185                       # Number of cycles decode is blocked
system.switch_cpus0.decode.RunCycles         25663627                       # Number of cycles decode is running
system.switch_cpus0.decode.UnblockCycles        60337                       # Number of cycles decode is unblocking
system.switch_cpus0.decode.SquashCycles       3966948                       # Number of cycles decode is squashing
system.switch_cpus0.decode.BranchResolved      3637647                       # Number of times decode resolved a branch
system.switch_cpus0.decode.BranchMispred          239                       # Number of times decode detected a branch misprediction
system.switch_cpus0.decode.DecodedInsts     151037771                       # Number of instructions handled by decode
system.switch_cpus0.decode.SquashedInsts         1328                       # Number of squashed instructions handled by decode
system.switch_cpus0.rename.SquashCycles       3966948                       # Number of cycles rename is squashing
system.switch_cpus0.rename.IdleCycles       110410130                       # Number of cycles rename is idle
system.switch_cpus0.rename.BlockCycles        1084321                       # Number of cycles rename is blocking
system.switch_cpus0.rename.serializeStallCycles      2411551                       # count of cycles rename stalled for serializing inst
system.switch_cpus0.rename.RunCycles         24972619                       # Number of cycles rename is running
system.switch_cpus0.rename.UnblockCycles      1363157                       # Number of cycles rename is unblocking
system.switch_cpus0.rename.RenamedInsts     150051926                       # Number of instructions processed by rename
system.switch_cpus0.rename.ROBFullEvents          495                       # Number of times rename has blocked due to ROB full
system.switch_cpus0.rename.IQFullEvents        274633                       # Number of times rename has blocked due to IQ full
system.switch_cpus0.rename.LSQFullEvents       563932                       # Number of times rename has blocked due to LSQ full
system.switch_cpus0.rename.FullRegisterEvents          335                       # Number of times there has been no free registers
system.switch_cpus0.rename.RenamedOperands    209238776                       # Number of destination operands rename has renamed
system.switch_cpus0.rename.RenameLookups    700994216                       # Number of register rename lookups that rename has made
system.switch_cpus0.rename.int_rename_lookups    700994216                       # Number of integer rename lookups
system.switch_cpus0.rename.CommittedMaps    170749012                       # Number of HB maps that are committed
system.switch_cpus0.rename.UndoneMaps        38489739                       # Number of HB maps that are undone due to squashing
system.switch_cpus0.rename.serializingInsts        39593                       # count of serializing insts renamed
system.switch_cpus0.rename.tempSerializingInsts        22923                       # count of temporary serializing insts renamed
system.switch_cpus0.rename.skidInsts          4117204                       # count of insts added to the skid buffer
system.switch_cpus0.memDep0.insertedLoads     14249600                       # Number of loads inserted to the mem dependence unit.
system.switch_cpus0.memDep0.insertedStores      7407363                       # Number of stores inserted to the mem dependence unit.
system.switch_cpus0.memDep0.conflictingLoads       122261                       # Number of conflicting loads.
system.switch_cpus0.memDep0.conflictingStores      1615287                       # Number of conflicting stores.
system.switch_cpus0.iq.iqInstsAdded         145881279                       # Number of instructions added to the IQ (excludes non-spec)
system.switch_cpus0.iq.iqNonSpecInstsAdded        39555                       # Number of non-speculative instructions added to the IQ
system.switch_cpus0.iq.iqInstsIssued        136423487                       # Number of instructions issued
system.switch_cpus0.iq.iqSquashedInstsIssued        26652                       # Number of squashed instructions issued
system.switch_cpus0.iq.iqSquashedInstsExamined     21166238                       # Number of squashed instructions iterated over during squash; mainly for profiling
system.switch_cpus0.iq.iqSquashedOperandsExamined     50027204                       # Number of squashed operands that are examined and possibly removed from graph
system.switch_cpus0.iq.iqSquashedNonSpecRemoved         6219                       # Number of squashed non-spec instructions that were removed
system.switch_cpus0.iq.issued_per_cycle::samples    144208731                       # Number of insts issued each cycle
system.switch_cpus0.iq.issued_per_cycle::mean     0.946014                       # Number of insts issued each cycle
system.switch_cpus0.iq.issued_per_cycle::stdev     1.506209                       # Number of insts issued each cycle
system.switch_cpus0.iq.issued_per_cycle::underflows            0      0.00%      0.00% # Number of insts issued each cycle
system.switch_cpus0.iq.issued_per_cycle::0     86519232     60.00%     60.00% # Number of insts issued each cycle
system.switch_cpus0.iq.issued_per_cycle::1     23211800     16.10%     76.09% # Number of insts issued each cycle
system.switch_cpus0.iq.issued_per_cycle::2     12854805      8.91%     85.01% # Number of insts issued each cycle
system.switch_cpus0.iq.issued_per_cycle::3      8315180      5.77%     90.77% # Number of insts issued each cycle
system.switch_cpus0.iq.issued_per_cycle::4      7641825      5.30%     96.07% # Number of insts issued each cycle
system.switch_cpus0.iq.issued_per_cycle::5      3041046      2.11%     98.18% # Number of insts issued each cycle
system.switch_cpus0.iq.issued_per_cycle::6      1844056      1.28%     99.46% # Number of insts issued each cycle
system.switch_cpus0.iq.issued_per_cycle::7       526625      0.37%     99.82% # Number of insts issued each cycle
system.switch_cpus0.iq.issued_per_cycle::8       254162      0.18%    100.00% # Number of insts issued each cycle
system.switch_cpus0.iq.issued_per_cycle::overflows            0      0.00%    100.00% # Number of insts issued each cycle
system.switch_cpus0.iq.issued_per_cycle::min_value            0                       # Number of insts issued each cycle
system.switch_cpus0.iq.issued_per_cycle::max_value            8                       # Number of insts issued each cycle
system.switch_cpus0.iq.issued_per_cycle::total    144208731                       # Number of insts issued each cycle
system.switch_cpus0.iq.fu_full::No_OpClass            0      0.00%      0.00% # attempts to use FU when none available
system.switch_cpus0.iq.fu_full::IntAlu          65387     22.40%     22.40% # attempts to use FU when none available
system.switch_cpus0.iq.fu_full::IntMult             0      0.00%     22.40% # attempts to use FU when none available
system.switch_cpus0.iq.fu_full::IntDiv              0      0.00%     22.40% # attempts to use FU when none available
system.switch_cpus0.iq.fu_full::FloatAdd            0      0.00%     22.40% # attempts to use FU when none available
system.switch_cpus0.iq.fu_full::FloatCmp            0      0.00%     22.40% # attempts to use FU when none available
system.switch_cpus0.iq.fu_full::FloatCvt            0      0.00%     22.40% # attempts to use FU when none available
system.switch_cpus0.iq.fu_full::FloatMult            0      0.00%     22.40% # attempts to use FU when none available
system.switch_cpus0.iq.fu_full::FloatDiv            0      0.00%     22.40% # attempts to use FU when none available
system.switch_cpus0.iq.fu_full::FloatSqrt            0      0.00%     22.40% # attempts to use FU when none available
system.switch_cpus0.iq.fu_full::SimdAdd             0      0.00%     22.40% # attempts to use FU when none available
system.switch_cpus0.iq.fu_full::SimdAddAcc            0      0.00%     22.40% # attempts to use FU when none available
system.switch_cpus0.iq.fu_full::SimdAlu             0      0.00%     22.40% # attempts to use FU when none available
system.switch_cpus0.iq.fu_full::SimdCmp             0      0.00%     22.40% # attempts to use FU when none available
system.switch_cpus0.iq.fu_full::SimdCvt             0      0.00%     22.40% # attempts to use FU when none available
system.switch_cpus0.iq.fu_full::SimdMisc            0      0.00%     22.40% # attempts to use FU when none available
system.switch_cpus0.iq.fu_full::SimdMult            0      0.00%     22.40% # attempts to use FU when none available
system.switch_cpus0.iq.fu_full::SimdMultAcc            0      0.00%     22.40% # attempts to use FU when none available
system.switch_cpus0.iq.fu_full::SimdShift            0      0.00%     22.40% # attempts to use FU when none available
system.switch_cpus0.iq.fu_full::SimdShiftAcc            0      0.00%     22.40% # attempts to use FU when none available
system.switch_cpus0.iq.fu_full::SimdSqrt            0      0.00%     22.40% # attempts to use FU when none available
system.switch_cpus0.iq.fu_full::SimdFloatAdd            0      0.00%     22.40% # attempts to use FU when none available
system.switch_cpus0.iq.fu_full::SimdFloatAlu            0      0.00%     22.40% # attempts to use FU when none available
system.switch_cpus0.iq.fu_full::SimdFloatCmp            0      0.00%     22.40% # attempts to use FU when none available
system.switch_cpus0.iq.fu_full::SimdFloatCvt            0      0.00%     22.40% # attempts to use FU when none available
system.switch_cpus0.iq.fu_full::SimdFloatDiv            0      0.00%     22.40% # attempts to use FU when none available
system.switch_cpus0.iq.fu_full::SimdFloatMisc            0      0.00%     22.40% # attempts to use FU when none available
system.switch_cpus0.iq.fu_full::SimdFloatMult            0      0.00%     22.40% # attempts to use FU when none available
system.switch_cpus0.iq.fu_full::SimdFloatMultAcc            0      0.00%     22.40% # attempts to use FU when none available
system.switch_cpus0.iq.fu_full::SimdFloatSqrt            0      0.00%     22.40% # attempts to use FU when none available
system.switch_cpus0.iq.fu_full::MemRead         99909     34.23%     56.63% # attempts to use FU when none available
system.switch_cpus0.iq.fu_full::MemWrite       126581     43.37%    100.00% # attempts to use FU when none available
system.switch_cpus0.iq.fu_full::IprAccess            0      0.00%    100.00% # attempts to use FU when none available
system.switch_cpus0.iq.fu_full::InstPrefetch            0      0.00%    100.00% # attempts to use FU when none available
system.switch_cpus0.iq.FU_type_0::No_OpClass            0      0.00%      0.00% # Type of FU issued
system.switch_cpus0.iq.FU_type_0::IntAlu    114546067     83.96%     83.96% # Type of FU issued
system.switch_cpus0.iq.FU_type_0::IntMult      2085671      1.53%     85.49% # Type of FU issued
system.switch_cpus0.iq.FU_type_0::IntDiv            0      0.00%     85.49% # Type of FU issued
system.switch_cpus0.iq.FU_type_0::FloatAdd            0      0.00%     85.49% # Type of FU issued
system.switch_cpus0.iq.FU_type_0::FloatCmp            0      0.00%     85.49% # Type of FU issued
system.switch_cpus0.iq.FU_type_0::FloatCvt            0      0.00%     85.49% # Type of FU issued
system.switch_cpus0.iq.FU_type_0::FloatMult            0      0.00%     85.49% # Type of FU issued
system.switch_cpus0.iq.FU_type_0::FloatDiv            0      0.00%     85.49% # Type of FU issued
system.switch_cpus0.iq.FU_type_0::FloatSqrt            0      0.00%     85.49% # Type of FU issued
system.switch_cpus0.iq.FU_type_0::SimdAdd            0      0.00%     85.49% # Type of FU issued
system.switch_cpus0.iq.FU_type_0::SimdAddAcc            0      0.00%     85.49% # Type of FU issued
system.switch_cpus0.iq.FU_type_0::SimdAlu            0      0.00%     85.49% # Type of FU issued
system.switch_cpus0.iq.FU_type_0::SimdCmp            0      0.00%     85.49% # Type of FU issued
system.switch_cpus0.iq.FU_type_0::SimdCvt            0      0.00%     85.49% # Type of FU issued
system.switch_cpus0.iq.FU_type_0::SimdMisc            0      0.00%     85.49% # Type of FU issued
system.switch_cpus0.iq.FU_type_0::SimdMult            0      0.00%     85.49% # Type of FU issued
system.switch_cpus0.iq.FU_type_0::SimdMultAcc            0      0.00%     85.49% # Type of FU issued
system.switch_cpus0.iq.FU_type_0::SimdShift            0      0.00%     85.49% # Type of FU issued
system.switch_cpus0.iq.FU_type_0::SimdShiftAcc            0      0.00%     85.49% # Type of FU issued
system.switch_cpus0.iq.FU_type_0::SimdSqrt            0      0.00%     85.49% # Type of FU issued
system.switch_cpus0.iq.FU_type_0::SimdFloatAdd            0      0.00%     85.49% # Type of FU issued
system.switch_cpus0.iq.FU_type_0::SimdFloatAlu            0      0.00%     85.49% # Type of FU issued
system.switch_cpus0.iq.FU_type_0::SimdFloatCmp            0      0.00%     85.49% # Type of FU issued
system.switch_cpus0.iq.FU_type_0::SimdFloatCvt            0      0.00%     85.49% # Type of FU issued
system.switch_cpus0.iq.FU_type_0::SimdFloatDiv            0      0.00%     85.49% # Type of FU issued
system.switch_cpus0.iq.FU_type_0::SimdFloatMisc        16669      0.01%     85.50% # Type of FU issued
system.switch_cpus0.iq.FU_type_0::SimdFloatMult            0      0.00%     85.50% # Type of FU issued
system.switch_cpus0.iq.FU_type_0::SimdFloatMultAcc            0      0.00%     85.50% # Type of FU issued
system.switch_cpus0.iq.FU_type_0::SimdFloatSqrt            0      0.00%     85.50% # Type of FU issued
system.switch_cpus0.iq.FU_type_0::MemRead     12424473      9.11%     94.61% # Type of FU issued
system.switch_cpus0.iq.FU_type_0::MemWrite      7350607      5.39%    100.00% # Type of FU issued
system.switch_cpus0.iq.FU_type_0::IprAccess            0      0.00%    100.00% # Type of FU issued
system.switch_cpus0.iq.FU_type_0::InstPrefetch            0      0.00%    100.00% # Type of FU issued
system.switch_cpus0.iq.FU_type_0::total     136423487                       # Type of FU issued
system.switch_cpus0.iq.rate                  0.930559                       # Inst issue rate
system.switch_cpus0.iq.fu_busy_cnt             291877                       # FU busy when requested
system.switch_cpus0.iq.fu_busy_rate          0.002139                       # FU busy rate (busy events/executed inst)
system.switch_cpus0.iq.int_inst_queue_reads    417374231                       # Number of integer instruction queue reads
system.switch_cpus0.iq.int_inst_queue_writes    167087413                       # Number of integer instruction queue writes
system.switch_cpus0.iq.int_inst_queue_wakeup_accesses    133830889                       # Number of integer instruction queue wakeup accesses
system.switch_cpus0.iq.fp_inst_queue_reads            0                       # Number of floating instruction queue reads
system.switch_cpus0.iq.fp_inst_queue_writes            0                       # Number of floating instruction queue writes
system.switch_cpus0.iq.fp_inst_queue_wakeup_accesses            0                       # Number of floating instruction queue wakeup accesses
system.switch_cpus0.iq.int_alu_accesses     136715364                       # Number of integer alu accesses
system.switch_cpus0.iq.fp_alu_accesses              0                       # Number of floating point alu accesses
system.switch_cpus0.iew.lsq.thread0.forwLoads       332872                       # Number of loads that had data forwarded from stores
system.switch_cpus0.iew.lsq.thread0.invAddrLoads            0                       # Number of loads ignored due to an invalid address
system.switch_cpus0.iew.lsq.thread0.squashedLoads      2981672                       # Number of loads squashed
system.switch_cpus0.iew.lsq.thread0.ignoredResponses          124                       # Number of memory responses ignored because the instruction is squashed
system.switch_cpus0.iew.lsq.thread0.memOrderViolation          341                       # Number of memory ordering violations
system.switch_cpus0.iew.lsq.thread0.squashedStores       184919                       # Number of stores squashed
system.switch_cpus0.iew.lsq.thread0.invAddrSwpfs            0                       # Number of software prefetches ignored due to an invalid address
system.switch_cpus0.iew.lsq.thread0.blockedLoads            0                       # Number of blocked loads due to partial load-store forwarding
system.switch_cpus0.iew.lsq.thread0.rescheduledLoads            0                       # Number of loads that were rescheduled
system.switch_cpus0.iew.lsq.thread0.cacheBlocked           91                       # Number of times an access to memory failed due to the cache being blocked
system.switch_cpus0.iew.iewIdleCycles               0                       # Number of cycles IEW is idle
system.switch_cpus0.iew.iewSquashCycles       3966948                       # Number of cycles IEW is squashing
system.switch_cpus0.iew.iewBlockCycles         814813                       # Number of cycles IEW is blocking
system.switch_cpus0.iew.iewUnblockCycles       111247                       # Number of cycles IEW is unblocking
system.switch_cpus0.iew.iewDispatchedInsts    145920834                       # Number of instructions dispatched to IQ
system.switch_cpus0.iew.iewDispSquashedInsts      1332347                       # Number of squashed instructions skipped by dispatch
system.switch_cpus0.iew.iewDispLoadInsts     14249600                       # Number of dispatched load instructions
system.switch_cpus0.iew.iewDispStoreInsts      7407363                       # Number of dispatched store instructions
system.switch_cpus0.iew.iewDispNonSpecInsts        22887                       # Number of dispatched non-speculative instructions
system.switch_cpus0.iew.iewIQFullEvents         84496                       # Number of times the IQ has become full, causing a stall
system.switch_cpus0.iew.iewLSQFullEvents            0                       # Number of times the LSQ has become full, causing a stall
system.switch_cpus0.iew.memOrderViolationEvents          341                       # Number of memory order violations
system.switch_cpus0.iew.predictedTakenIncorrect      1187018                       # Number of branches that were predicted taken incorrectly
system.switch_cpus0.iew.predictedNotTakenIncorrect      1156439                       # Number of branches that were predicted not taken incorrectly
system.switch_cpus0.iew.branchMispredicts      2343457                       # Number of branch mispredicts detected at execute
system.switch_cpus0.iew.iewExecutedInsts    134585158                       # Number of executed instructions
system.switch_cpus0.iew.iewExecLoadInsts     12255209                       # Number of load instructions executed
system.switch_cpus0.iew.iewExecSquashedInsts      1838326                       # Number of squashed instructions skipped in execute
system.switch_cpus0.iew.exec_swp                    0                       # number of swp insts executed
system.switch_cpus0.iew.exec_nop                    0                       # number of nop insts executed
system.switch_cpus0.iew.exec_refs            19604407                       # number of memory reference insts executed
system.switch_cpus0.iew.exec_branches        18851286                       # Number of branches executed
system.switch_cpus0.iew.exec_stores           7349198                       # Number of stores executed
system.switch_cpus0.iew.exec_rate            0.918019                       # Inst execution rate
system.switch_cpus0.iew.wb_sent             133831169                       # cumulative count of insts sent to commit
system.switch_cpus0.iew.wb_count            133830889                       # cumulative count of insts written-back
system.switch_cpus0.iew.wb_producers         78386589                       # num instructions producing a value
system.switch_cpus0.iew.wb_consumers        213036091                       # num instructions consuming a value
system.switch_cpus0.iew.wb_penalized                0                       # number of instrctions required to write to 'other' IQ
system.switch_cpus0.iew.wb_rate              0.912875                       # insts written-back per cycle
system.switch_cpus0.iew.wb_fanout            0.367950                       # average fanout of values written-back
system.switch_cpus0.iew.wb_penalized_rate            0                       # fraction of instructions written-back that wrote to 'other' IQ
system.switch_cpus0.commit.commitCommittedInsts    100000000                       # The number of committed instructions
system.switch_cpus0.commit.commitCommittedOps    122904423                       # The number of committed instructions
system.switch_cpus0.commit.commitSquashedInsts     23024270                       # The number of squashed insts skipped by commit
system.switch_cpus0.commit.commitNonSpecStalls        33336                       # The number of times commit has been forced to stall to communicate backwards
system.switch_cpus0.commit.branchMispredicts      2063241                       # The number of times a branch was mispredicted
system.switch_cpus0.commit.committed_per_cycle::samples    140241783                       # Number of insts commited each cycle
system.switch_cpus0.commit.committed_per_cycle::mean     0.876375                       # Number of insts commited each cycle
system.switch_cpus0.commit.committed_per_cycle::stdev     1.683614                       # Number of insts commited each cycle
system.switch_cpus0.commit.committed_per_cycle::underflows            0      0.00%      0.00% # Number of insts commited each cycle
system.switch_cpus0.commit.committed_per_cycle::0     90427130     64.48%     64.48% # Number of insts commited each cycle
system.switch_cpus0.commit.committed_per_cycle::1     23952516     17.08%     81.56% # Number of insts commited each cycle
system.switch_cpus0.commit.committed_per_cycle::2      9407026      6.71%     88.27% # Number of insts commited each cycle
system.switch_cpus0.commit.committed_per_cycle::3      4833767      3.45%     91.71% # Number of insts commited each cycle
system.switch_cpus0.commit.committed_per_cycle::4      4227084      3.01%     94.73% # Number of insts commited each cycle
system.switch_cpus0.commit.committed_per_cycle::5      2024403      1.44%     96.17% # Number of insts commited each cycle
system.switch_cpus0.commit.committed_per_cycle::6      1762408      1.26%     97.43% # Number of insts commited each cycle
system.switch_cpus0.commit.committed_per_cycle::7       827837      0.59%     98.02% # Number of insts commited each cycle
system.switch_cpus0.commit.committed_per_cycle::8      2779612      1.98%    100.00% # Number of insts commited each cycle
system.switch_cpus0.commit.committed_per_cycle::overflows            0      0.00%    100.00% # Number of insts commited each cycle
system.switch_cpus0.commit.committed_per_cycle::min_value            0                       # Number of insts commited each cycle
system.switch_cpus0.commit.committed_per_cycle::max_value            8                       # Number of insts commited each cycle
system.switch_cpus0.commit.committed_per_cycle::total    140241783                       # Number of insts commited each cycle
system.switch_cpus0.commit.committedInsts    100000000                       # Number of instructions committed
system.switch_cpus0.commit.committedOps     122904423                       # Number of ops (including micro ops) committed
system.switch_cpus0.commit.swp_count                0                       # Number of s/w prefetches committed
system.switch_cpus0.commit.refs              18490372                       # Number of memory references committed
system.switch_cpus0.commit.loads             11267928                       # Number of loads committed
system.switch_cpus0.commit.membars              16668                       # Number of memory barriers committed
system.switch_cpus0.commit.branches          17627285                       # Number of branches committed
system.switch_cpus0.commit.fp_insts                 0                       # Number of committed floating point instructions.
system.switch_cpus0.commit.int_insts        110781810                       # Number of committed integer instructions.
system.switch_cpus0.commit.function_calls      2507803                       # Number of function calls committed.
system.switch_cpus0.commit.bw_lim_events      2779612                       # number cycles where commit BW limit reached
system.switch_cpus0.commit.bw_limited               0                       # number of insts not committed due to BW limits
system.switch_cpus0.rob.rob_reads           283390864                       # The number of ROB reads
system.switch_cpus0.rob.rob_writes          295824398                       # The number of ROB writes
system.switch_cpus0.timesIdled                  46705                       # Number of times that the entire CPU went into an idle state and unscheduled itself
system.switch_cpus0.idleCycles                2395086                       # Total number of cycles that the CPU has spent unscheduled due to idling
system.switch_cpus0.committedInsts          100000000                       # Number of Instructions Simulated
system.switch_cpus0.committedOps            122904423                       # Number of Ops (including micro ops) Simulated
system.switch_cpus0.committedInsts_total    100000000                       # Number of Instructions Simulated
system.switch_cpus0.cpi                      1.466038                       # CPI: Cycles Per Instruction
system.switch_cpus0.cpi_total                1.466038                       # CPI: Total CPI of All Threads
system.switch_cpus0.ipc                      0.682110                       # IPC: Instructions Per Cycle
system.switch_cpus0.ipc_total                0.682110                       # IPC: Total IPC of All Threads
system.switch_cpus0.int_regfile_reads       606387256                       # number of integer regfile reads
system.switch_cpus0.int_regfile_writes      185675246                       # number of integer regfile writes
system.switch_cpus0.misc_regfile_reads      141486540                       # number of misc regfile reads
system.switch_cpus0.misc_regfile_writes         33336                       # number of misc regfile writes
system.switch_cpus1.dtb.inst_hits                   0                       # ITB inst hits
system.switch_cpus1.dtb.inst_misses                 0                       # ITB inst misses
system.switch_cpus1.dtb.read_hits                   0                       # DTB read hits
system.switch_cpus1.dtb.read_misses                 0                       # DTB read misses
system.switch_cpus1.dtb.write_hits                  0                       # DTB write hits
system.switch_cpus1.dtb.write_misses                0                       # DTB write misses
system.switch_cpus1.dtb.flush_tlb                   0                       # Number of times complete TLB was flushed
system.switch_cpus1.dtb.flush_tlb_mva               0                       # Number of times TLB was flushed by MVA
system.switch_cpus1.dtb.flush_tlb_mva_asid            0                       # Number of times TLB was flushed by MVA & ASID
system.switch_cpus1.dtb.flush_tlb_asid              0                       # Number of times TLB was flushed by ASID
system.switch_cpus1.dtb.flush_entries               0                       # Number of entries that have been flushed from TLB
system.switch_cpus1.dtb.align_faults                0                       # Number of TLB faults due to alignment restrictions
system.switch_cpus1.dtb.prefetch_faults             0                       # Number of TLB faults due to prefetch
system.switch_cpus1.dtb.domain_faults               0                       # Number of TLB faults due to domain restrictions
system.switch_cpus1.dtb.perms_faults                0                       # Number of TLB faults due to permissions restrictions
system.switch_cpus1.dtb.read_accesses               0                       # DTB read accesses
system.switch_cpus1.dtb.write_accesses              0                       # DTB write accesses
system.switch_cpus1.dtb.inst_accesses               0                       # ITB inst accesses
system.switch_cpus1.dtb.hits                        0                       # DTB hits
system.switch_cpus1.dtb.misses                      0                       # DTB misses
system.switch_cpus1.dtb.accesses                    0                       # DTB accesses
system.switch_cpus1.itb.inst_hits                   0                       # ITB inst hits
system.switch_cpus1.itb.inst_misses                 0                       # ITB inst misses
system.switch_cpus1.itb.read_hits                   0                       # DTB read hits
system.switch_cpus1.itb.read_misses                 0                       # DTB read misses
system.switch_cpus1.itb.write_hits                  0                       # DTB write hits
system.switch_cpus1.itb.write_misses                0                       # DTB write misses
system.switch_cpus1.itb.flush_tlb                   0                       # Number of times complete TLB was flushed
system.switch_cpus1.itb.flush_tlb_mva               0                       # Number of times TLB was flushed by MVA
system.switch_cpus1.itb.flush_tlb_mva_asid            0                       # Number of times TLB was flushed by MVA & ASID
system.switch_cpus1.itb.flush_tlb_asid              0                       # Number of times TLB was flushed by ASID
system.switch_cpus1.itb.flush_entries               0                       # Number of entries that have been flushed from TLB
system.switch_cpus1.itb.align_faults                0                       # Number of TLB faults due to alignment restrictions
system.switch_cpus1.itb.prefetch_faults             0                       # Number of TLB faults due to prefetch
system.switch_cpus1.itb.domain_faults               0                       # Number of TLB faults due to domain restrictions
system.switch_cpus1.itb.perms_faults                0                       # Number of TLB faults due to permissions restrictions
system.switch_cpus1.itb.read_accesses               0                       # DTB read accesses
system.switch_cpus1.itb.write_accesses              0                       # DTB write accesses
system.switch_cpus1.itb.inst_accesses               0                       # ITB inst accesses
system.switch_cpus1.itb.hits                        0                       # DTB hits
system.switch_cpus1.itb.misses                      0                       # DTB misses
system.switch_cpus1.itb.accesses                    0                       # DTB accesses
system.cpu1.workload.num_syscalls                   0                       # Number of system calls
system.switch_cpus1.numCycles               146603817                       # number of cpu cycles simulated
system.switch_cpus1.numWorkItemsStarted             0                       # number of work items this cpu started
system.switch_cpus1.numWorkItemsCompleted            0                       # number of work items this cpu completed
system.switch_cpus1.BPredUnit.lookups        24390349                       # Number of BP lookups
system.switch_cpus1.BPredUnit.condPredicted     19766274                       # Number of conditional branches predicted
system.switch_cpus1.BPredUnit.condIncorrect      2116252                       # Number of conditional branches incorrect
system.switch_cpus1.BPredUnit.BTBLookups      9806158                       # Number of BTB lookups
system.switch_cpus1.BPredUnit.BTBHits         9359435                       # Number of BTB hits
system.switch_cpus1.BPredUnit.BTBCorrect            0                       # Number of correct BTB predictions (this stat may not work properly.
system.switch_cpus1.BPredUnit.usedRAS         2608496                       # Number of times the RAS was used to get a target.
system.switch_cpus1.BPredUnit.RASInCorrect        93693                       # Number of incorrect RAS predictions.
system.switch_cpus1.fetch.icacheStallCycles    106380192                       # Number of cycles fetch is stalled on an Icache miss
system.switch_cpus1.fetch.Insts             134258670                       # Number of instructions fetch has processed
system.switch_cpus1.fetch.Branches           24390349                       # Number of branches that fetch encountered
system.switch_cpus1.fetch.predictedBranches     11967931                       # Number of branches that fetch has predicted taken
system.switch_cpus1.fetch.Cycles             29335833                       # Number of cycles fetch has run and was not squashing or blocked
system.switch_cpus1.fetch.SquashCycles        6877950                       # Number of cycles fetch has spent squashing
system.switch_cpus1.fetch.BlockedCycles       2997188                       # Number of cycles fetch has spent blocked
system.switch_cpus1.fetch.CacheLines         12416079                       # Number of cache lines fetched
system.switch_cpus1.fetch.IcacheSquashes      1709454                       # Number of outstanding Icache misses that were squashed
system.switch_cpus1.fetch.rateDist::samples    143427719                       # Number of instructions fetched each cycle (Total)
system.switch_cpus1.fetch.rateDist::mean     1.143241                       # Number of instructions fetched each cycle (Total)
system.switch_cpus1.fetch.rateDist::stdev     2.557298                       # Number of instructions fetched each cycle (Total)
system.switch_cpus1.fetch.rateDist::underflows            0      0.00%      0.00% # Number of instructions fetched each cycle (Total)
system.switch_cpus1.fetch.rateDist::0       114091886     79.55%     79.55% # Number of instructions fetched each cycle (Total)
system.switch_cpus1.fetch.rateDist::1         2756778      1.92%     81.47% # Number of instructions fetched each cycle (Total)
system.switch_cpus1.fetch.rateDist::2         2102662      1.47%     82.93% # Number of instructions fetched each cycle (Total)
system.switch_cpus1.fetch.rateDist::3         5164006      3.60%     86.54% # Number of instructions fetched each cycle (Total)
system.switch_cpus1.fetch.rateDist::4         1165756      0.81%     87.35% # Number of instructions fetched each cycle (Total)
system.switch_cpus1.fetch.rateDist::5         1668746      1.16%     88.51% # Number of instructions fetched each cycle (Total)
system.switch_cpus1.fetch.rateDist::6         1258921      0.88%     89.39% # Number of instructions fetched each cycle (Total)
system.switch_cpus1.fetch.rateDist::7          793597      0.55%     89.94% # Number of instructions fetched each cycle (Total)
system.switch_cpus1.fetch.rateDist::8        14425367     10.06%    100.00% # Number of instructions fetched each cycle (Total)
system.switch_cpus1.fetch.rateDist::overflows            0      0.00%    100.00% # Number of instructions fetched each cycle (Total)
system.switch_cpus1.fetch.rateDist::min_value            0                       # Number of instructions fetched each cycle (Total)
system.switch_cpus1.fetch.rateDist::max_value            8                       # Number of instructions fetched each cycle (Total)
system.switch_cpus1.fetch.rateDist::total    143427719                       # Number of instructions fetched each cycle (Total)
system.switch_cpus1.fetch.branchRate         0.166369                       # Number of branch fetches per cycle
system.switch_cpus1.fetch.rate               0.915792                       # Number of inst fetches per cycle
system.switch_cpus1.decode.IdleCycles       105138932                       # Number of cycles decode is idle
system.switch_cpus1.decode.BlockedCycles      4617818                       # Number of cycles decode is blocked
system.switch_cpus1.decode.RunCycles         28884211                       # Number of cycles decode is running
system.switch_cpus1.decode.UnblockCycles       115580                       # Number of cycles decode is unblocking
system.switch_cpus1.decode.SquashCycles       4671174                       # Number of cycles decode is squashing
system.switch_cpus1.decode.BranchResolved      4208872                       # Number of times decode resolved a branch
system.switch_cpus1.decode.BranchMispred        43336                       # Number of times decode detected a branch misprediction
system.switch_cpus1.decode.DecodedInsts     162009542                       # Number of instructions handled by decode
system.switch_cpus1.decode.SquashedInsts        80437                       # Number of squashed instructions handled by decode
system.switch_cpus1.rename.SquashCycles       4671174                       # Number of cycles rename is squashing
system.switch_cpus1.rename.IdleCycles       106029544                       # Number of cycles rename is idle
system.switch_cpus1.rename.BlockCycles        1288233                       # Number of cycles rename is blocking
system.switch_cpus1.rename.serializeStallCycles      1832099                       # count of cycles rename stalled for serializing inst
system.switch_cpus1.rename.RunCycles         28099608                       # Number of cycles rename is running
system.switch_cpus1.rename.UnblockCycles      1507057                       # Number of cycles rename is unblocking
system.switch_cpus1.rename.RenamedInsts     160336710                       # Number of instructions processed by rename
system.switch_cpus1.rename.ROBFullEvents        17505                       # Number of times rename has blocked due to ROB full
system.switch_cpus1.rename.IQFullEvents        277968                       # Number of times rename has blocked due to IQ full
system.switch_cpus1.rename.LSQFullEvents       627259                       # Number of times rename has blocked due to LSQ full
system.switch_cpus1.rename.FullRegisterEvents       153964                       # Number of times there has been no free registers
system.switch_cpus1.rename.RenamedOperands    225240479                       # Number of destination operands rename has renamed
system.switch_cpus1.rename.RenameLookups    746791627                       # Number of register rename lookups that rename has made
system.switch_cpus1.rename.int_rename_lookups    746791627                       # Number of integer rename lookups
system.switch_cpus1.rename.CommittedMaps    177661615                       # Number of HB maps that are committed
system.switch_cpus1.rename.UndoneMaps        47578826                       # Number of HB maps that are undone due to squashing
system.switch_cpus1.rename.serializingInsts        39231                       # count of serializing insts renamed
system.switch_cpus1.rename.tempSerializingInsts        22021                       # count of temporary serializing insts renamed
system.switch_cpus1.rename.skidInsts          5178485                       # count of insts added to the skid buffer
system.switch_cpus1.memDep0.insertedLoads     15495044                       # Number of loads inserted to the mem dependence unit.
system.switch_cpus1.memDep0.insertedStores      7546174                       # Number of stores inserted to the mem dependence unit.
system.switch_cpus1.memDep0.conflictingLoads       127483                       # Number of conflicting loads.
system.switch_cpus1.memDep0.conflictingStores      1678984                       # Number of conflicting stores.
system.switch_cpus1.iq.iqInstsAdded         157484595                       # Number of instructions added to the IQ (excludes non-spec)
system.switch_cpus1.iq.iqNonSpecInstsAdded        39218                       # Number of non-speculative instructions added to the IQ
system.switch_cpus1.iq.iqInstsIssued        146221067                       # Number of instructions issued
system.switch_cpus1.iq.iqSquashedInstsIssued       196510                       # Number of squashed instructions issued
system.switch_cpus1.iq.iqSquashedInstsExamined     28856440                       # Number of squashed instructions iterated over during squash; mainly for profiling
system.switch_cpus1.iq.iqSquashedOperandsExamined     62577679                       # Number of squashed operands that are examined and possibly removed from graph
system.switch_cpus1.iq.iqSquashedNonSpecRemoved         4800                       # Number of squashed non-spec instructions that were removed
system.switch_cpus1.iq.issued_per_cycle::samples    143427719                       # Number of insts issued each cycle
system.switch_cpus1.iq.issued_per_cycle::mean     1.019476                       # Number of insts issued each cycle
system.switch_cpus1.iq.issued_per_cycle::stdev     1.565907                       # Number of insts issued each cycle
system.switch_cpus1.iq.issued_per_cycle::underflows            0      0.00%      0.00% # Number of insts issued each cycle
system.switch_cpus1.iq.issued_per_cycle::0     82209879     57.32%     57.32% # Number of insts issued each cycle
system.switch_cpus1.iq.issued_per_cycle::1     25709726     17.93%     75.24% # Number of insts issued each cycle
system.switch_cpus1.iq.issued_per_cycle::2     12015157      8.38%     83.62% # Number of insts issued each cycle
system.switch_cpus1.iq.issued_per_cycle::3      8819671      6.15%     89.77% # Number of insts issued each cycle
system.switch_cpus1.iq.issued_per_cycle::4      7844844      5.47%     95.24% # Number of insts issued each cycle
system.switch_cpus1.iq.issued_per_cycle::5      3114852      2.17%     97.41% # Number of insts issued each cycle
system.switch_cpus1.iq.issued_per_cycle::6      3080955      2.15%     99.56% # Number of insts issued each cycle
system.switch_cpus1.iq.issued_per_cycle::7       478432      0.33%     99.89% # Number of insts issued each cycle
system.switch_cpus1.iq.issued_per_cycle::8       154203      0.11%    100.00% # Number of insts issued each cycle
system.switch_cpus1.iq.issued_per_cycle::overflows            0      0.00%    100.00% # Number of insts issued each cycle
system.switch_cpus1.iq.issued_per_cycle::min_value            0                       # Number of insts issued each cycle
system.switch_cpus1.iq.issued_per_cycle::max_value            8                       # Number of insts issued each cycle
system.switch_cpus1.iq.issued_per_cycle::total    143427719                       # Number of insts issued each cycle
system.switch_cpus1.iq.fu_full::No_OpClass            0      0.00%      0.00% # attempts to use FU when none available
system.switch_cpus1.iq.fu_full::IntAlu         587452     68.53%     68.53% # attempts to use FU when none available
system.switch_cpus1.iq.fu_full::IntMult             0      0.00%     68.53% # attempts to use FU when none available
system.switch_cpus1.iq.fu_full::IntDiv              0      0.00%     68.53% # attempts to use FU when none available
system.switch_cpus1.iq.fu_full::FloatAdd            0      0.00%     68.53% # attempts to use FU when none available
system.switch_cpus1.iq.fu_full::FloatCmp            0      0.00%     68.53% # attempts to use FU when none available
system.switch_cpus1.iq.fu_full::FloatCvt            0      0.00%     68.53% # attempts to use FU when none available
system.switch_cpus1.iq.fu_full::FloatMult            0      0.00%     68.53% # attempts to use FU when none available
system.switch_cpus1.iq.fu_full::FloatDiv            0      0.00%     68.53% # attempts to use FU when none available
system.switch_cpus1.iq.fu_full::FloatSqrt            0      0.00%     68.53% # attempts to use FU when none available
system.switch_cpus1.iq.fu_full::SimdAdd             0      0.00%     68.53% # attempts to use FU when none available
system.switch_cpus1.iq.fu_full::SimdAddAcc            0      0.00%     68.53% # attempts to use FU when none available
system.switch_cpus1.iq.fu_full::SimdAlu             0      0.00%     68.53% # attempts to use FU when none available
system.switch_cpus1.iq.fu_full::SimdCmp             0      0.00%     68.53% # attempts to use FU when none available
system.switch_cpus1.iq.fu_full::SimdCvt             0      0.00%     68.53% # attempts to use FU when none available
system.switch_cpus1.iq.fu_full::SimdMisc            0      0.00%     68.53% # attempts to use FU when none available
system.switch_cpus1.iq.fu_full::SimdMult            0      0.00%     68.53% # attempts to use FU when none available
system.switch_cpus1.iq.fu_full::SimdMultAcc            0      0.00%     68.53% # attempts to use FU when none available
system.switch_cpus1.iq.fu_full::SimdShift            0      0.00%     68.53% # attempts to use FU when none available
system.switch_cpus1.iq.fu_full::SimdShiftAcc            0      0.00%     68.53% # attempts to use FU when none available
system.switch_cpus1.iq.fu_full::SimdSqrt            0      0.00%     68.53% # attempts to use FU when none available
system.switch_cpus1.iq.fu_full::SimdFloatAdd            0      0.00%     68.53% # attempts to use FU when none available
system.switch_cpus1.iq.fu_full::SimdFloatAlu            0      0.00%     68.53% # attempts to use FU when none available
system.switch_cpus1.iq.fu_full::SimdFloatCmp            0      0.00%     68.53% # attempts to use FU when none available
system.switch_cpus1.iq.fu_full::SimdFloatCvt            0      0.00%     68.53% # attempts to use FU when none available
system.switch_cpus1.iq.fu_full::SimdFloatDiv            0      0.00%     68.53% # attempts to use FU when none available
system.switch_cpus1.iq.fu_full::SimdFloatMisc            0      0.00%     68.53% # attempts to use FU when none available
system.switch_cpus1.iq.fu_full::SimdFloatMult            0      0.00%     68.53% # attempts to use FU when none available
system.switch_cpus1.iq.fu_full::SimdFloatMultAcc            0      0.00%     68.53% # attempts to use FU when none available
system.switch_cpus1.iq.fu_full::SimdFloatSqrt            0      0.00%     68.53% # attempts to use FU when none available
system.switch_cpus1.iq.fu_full::MemRead        121463     14.17%     82.70% # attempts to use FU when none available
system.switch_cpus1.iq.fu_full::MemWrite       148303     17.30%    100.00% # attempts to use FU when none available
system.switch_cpus1.iq.fu_full::IprAccess            0      0.00%    100.00% # attempts to use FU when none available
system.switch_cpus1.iq.fu_full::InstPrefetch            0      0.00%    100.00% # attempts to use FU when none available
system.switch_cpus1.iq.FU_type_0::No_OpClass            0      0.00%      0.00% # Type of FU issued
system.switch_cpus1.iq.FU_type_0::IntAlu    122729750     83.93%     83.93% # Type of FU issued
system.switch_cpus1.iq.FU_type_0::IntMult      2197398      1.50%     85.44% # Type of FU issued
system.switch_cpus1.iq.FU_type_0::IntDiv            0      0.00%     85.44% # Type of FU issued
system.switch_cpus1.iq.FU_type_0::FloatAdd            0      0.00%     85.44% # Type of FU issued
system.switch_cpus1.iq.FU_type_0::FloatCmp            0      0.00%     85.44% # Type of FU issued
system.switch_cpus1.iq.FU_type_0::FloatCvt            0      0.00%     85.44% # Type of FU issued
system.switch_cpus1.iq.FU_type_0::FloatMult            0      0.00%     85.44% # Type of FU issued
system.switch_cpus1.iq.FU_type_0::FloatDiv            0      0.00%     85.44% # Type of FU issued
system.switch_cpus1.iq.FU_type_0::FloatSqrt            0      0.00%     85.44% # Type of FU issued
system.switch_cpus1.iq.FU_type_0::SimdAdd            0      0.00%     85.44% # Type of FU issued
system.switch_cpus1.iq.FU_type_0::SimdAddAcc            0      0.00%     85.44% # Type of FU issued
system.switch_cpus1.iq.FU_type_0::SimdAlu            0      0.00%     85.44% # Type of FU issued
system.switch_cpus1.iq.FU_type_0::SimdCmp            0      0.00%     85.44% # Type of FU issued
system.switch_cpus1.iq.FU_type_0::SimdCvt            0      0.00%     85.44% # Type of FU issued
system.switch_cpus1.iq.FU_type_0::SimdMisc            0      0.00%     85.44% # Type of FU issued
system.switch_cpus1.iq.FU_type_0::SimdMult            0      0.00%     85.44% # Type of FU issued
system.switch_cpus1.iq.FU_type_0::SimdMultAcc            0      0.00%     85.44% # Type of FU issued
system.switch_cpus1.iq.FU_type_0::SimdShift            0      0.00%     85.44% # Type of FU issued
system.switch_cpus1.iq.FU_type_0::SimdShiftAcc            0      0.00%     85.44% # Type of FU issued
system.switch_cpus1.iq.FU_type_0::SimdSqrt            0      0.00%     85.44% # Type of FU issued
system.switch_cpus1.iq.FU_type_0::SimdFloatAdd            0      0.00%     85.44% # Type of FU issued
system.switch_cpus1.iq.FU_type_0::SimdFloatAlu            0      0.00%     85.44% # Type of FU issued
system.switch_cpus1.iq.FU_type_0::SimdFloatCmp            0      0.00%     85.44% # Type of FU issued
system.switch_cpus1.iq.FU_type_0::SimdFloatCvt            0      0.00%     85.44% # Type of FU issued
system.switch_cpus1.iq.FU_type_0::SimdFloatDiv            0      0.00%     85.44% # Type of FU issued
system.switch_cpus1.iq.FU_type_0::SimdFloatMisc        17209      0.01%     85.45% # Type of FU issued
system.switch_cpus1.iq.FU_type_0::SimdFloatMult            0      0.00%     85.45% # Type of FU issued
system.switch_cpus1.iq.FU_type_0::SimdFloatMultAcc            0      0.00%     85.45% # Type of FU issued
system.switch_cpus1.iq.FU_type_0::SimdFloatSqrt            0      0.00%     85.45% # Type of FU issued
system.switch_cpus1.iq.FU_type_0::MemRead     13802739      9.44%     94.89% # Type of FU issued
system.switch_cpus1.iq.FU_type_0::MemWrite      7473971      5.11%    100.00% # Type of FU issued
system.switch_cpus1.iq.FU_type_0::IprAccess            0      0.00%    100.00% # Type of FU issued
system.switch_cpus1.iq.FU_type_0::InstPrefetch            0      0.00%    100.00% # Type of FU issued
system.switch_cpus1.iq.FU_type_0::total     146221067                       # Type of FU issued
system.switch_cpus1.iq.rate                  0.997389                       # Inst issue rate
system.switch_cpus1.iq.fu_busy_cnt             857218                       # FU busy when requested
system.switch_cpus1.iq.fu_busy_rate          0.005862                       # FU busy rate (busy events/executed inst)
system.switch_cpus1.iq.int_inst_queue_reads    436923579                       # Number of integer instruction queue reads
system.switch_cpus1.iq.int_inst_queue_writes    186380706                       # Number of integer instruction queue writes
system.switch_cpus1.iq.int_inst_queue_wakeup_accesses    142540788                       # Number of integer instruction queue wakeup accesses
system.switch_cpus1.iq.fp_inst_queue_reads            0                       # Number of floating instruction queue reads
system.switch_cpus1.iq.fp_inst_queue_writes            0                       # Number of floating instruction queue writes
system.switch_cpus1.iq.fp_inst_queue_wakeup_accesses            0                       # Number of floating instruction queue wakeup accesses
system.switch_cpus1.iq.int_alu_accesses     147078285                       # Number of integer alu accesses
system.switch_cpus1.iq.fp_alu_accesses              0                       # Number of floating point alu accesses
system.switch_cpus1.iew.lsq.thread0.forwLoads       358827                       # Number of loads that had data forwarded from stores
system.switch_cpus1.iew.lsq.thread0.invAddrLoads            0                       # Number of loads ignored due to an invalid address
system.switch_cpus1.iew.lsq.thread0.squashedLoads      3802609                       # Number of loads squashed
system.switch_cpus1.iew.lsq.thread0.ignoredResponses         1102                       # Number of memory responses ignored because the instruction is squashed
system.switch_cpus1.iew.lsq.thread0.memOrderViolation          453                       # Number of memory ordering violations
system.switch_cpus1.iew.lsq.thread0.squashedStores       233598                       # Number of stores squashed
system.switch_cpus1.iew.lsq.thread0.invAddrSwpfs            0                       # Number of software prefetches ignored due to an invalid address
system.switch_cpus1.iew.lsq.thread0.blockedLoads            0                       # Number of blocked loads due to partial load-store forwarding
system.switch_cpus1.iew.lsq.thread0.rescheduledLoads            0                       # Number of loads that were rescheduled
system.switch_cpus1.iew.lsq.thread0.cacheBlocked            0                       # Number of times an access to memory failed due to the cache being blocked
system.switch_cpus1.iew.iewIdleCycles               0                       # Number of cycles IEW is idle
system.switch_cpus1.iew.iewSquashCycles       4671174                       # Number of cycles IEW is squashing
system.switch_cpus1.iew.iewBlockCycles         801100                       # Number of cycles IEW is blocking
system.switch_cpus1.iew.iewUnblockCycles        94303                       # Number of cycles IEW is unblocking
system.switch_cpus1.iew.iewDispatchedInsts    157523813                       # Number of instructions dispatched to IQ
system.switch_cpus1.iew.iewDispSquashedInsts        55954                       # Number of squashed instructions skipped by dispatch
system.switch_cpus1.iew.iewDispLoadInsts     15495044                       # Number of dispatched load instructions
system.switch_cpus1.iew.iewDispStoreInsts      7546174                       # Number of dispatched store instructions
system.switch_cpus1.iew.iewDispNonSpecInsts        22009                       # Number of dispatched non-speculative instructions
system.switch_cpus1.iew.iewIQFullEvents         82227                       # Number of times the IQ has become full, causing a stall
system.switch_cpus1.iew.iewLSQFullEvents            0                       # Number of times the LSQ has become full, causing a stall
system.switch_cpus1.iew.memOrderViolationEvents          453                       # Number of memory order violations
system.switch_cpus1.iew.predictedTakenIncorrect      1149527                       # Number of branches that were predicted taken incorrectly
system.switch_cpus1.iew.predictedNotTakenIncorrect      1209749                       # Number of branches that were predicted not taken incorrectly
system.switch_cpus1.iew.branchMispredicts      2359276                       # Number of branch mispredicts detected at execute
system.switch_cpus1.iew.iewExecutedInsts    143585833                       # Number of executed instructions
system.switch_cpus1.iew.iewExecLoadInsts     13263393                       # Number of load instructions executed
system.switch_cpus1.iew.iewExecSquashedInsts      2635232                       # Number of squashed instructions skipped in execute
system.switch_cpus1.iew.exec_swp                    0                       # number of swp insts executed
system.switch_cpus1.iew.exec_nop                    0                       # number of nop insts executed
system.switch_cpus1.iew.exec_refs            20735547                       # number of memory reference insts executed
system.switch_cpus1.iew.exec_branches        20391154                       # Number of branches executed
system.switch_cpus1.iew.exec_stores           7472154                       # Number of stores executed
system.switch_cpus1.iew.exec_rate            0.979414                       # Inst execution rate
system.switch_cpus1.iew.wb_sent             142727885                       # cumulative count of insts sent to commit
system.switch_cpus1.iew.wb_count            142540788                       # cumulative count of insts written-back
system.switch_cpus1.iew.wb_producers         85499546                       # num instructions producing a value
system.switch_cpus1.iew.wb_consumers        236922464                       # num instructions consuming a value
system.switch_cpus1.iew.wb_penalized                0                       # number of instrctions required to write to 'other' IQ
system.switch_cpus1.iew.wb_rate              0.972286                       # insts written-back per cycle
system.switch_cpus1.iew.wb_fanout            0.360876                       # average fanout of values written-back
system.switch_cpus1.iew.wb_penalized_rate            0                       # fraction of instructions written-back that wrote to 'other' IQ
system.switch_cpus1.commit.commitCommittedInsts    104080640                       # The number of committed instructions
system.switch_cpus1.commit.commitCommittedOps    127820964                       # The number of committed instructions
system.switch_cpus1.commit.commitSquashedInsts     29704015                       # The number of squashed insts skipped by commit
system.switch_cpus1.commit.commitNonSpecStalls        34418                       # The number of times commit has been forced to stall to communicate backwards
system.switch_cpus1.commit.branchMispredicts      2119826                       # The number of times a branch was mispredicted
system.switch_cpus1.commit.committed_per_cycle::samples    138756545                       # Number of insts commited each cycle
system.switch_cpus1.commit.committed_per_cycle::mean     0.921189                       # Number of insts commited each cycle
system.switch_cpus1.commit.committed_per_cycle::stdev     1.693933                       # Number of insts commited each cycle
system.switch_cpus1.commit.committed_per_cycle::underflows            0      0.00%      0.00% # Number of insts commited each cycle
system.switch_cpus1.commit.committed_per_cycle::0     86332297     62.22%     62.22% # Number of insts commited each cycle
system.switch_cpus1.commit.committed_per_cycle::1     24528010     17.68%     79.90% # Number of insts commited each cycle
system.switch_cpus1.commit.committed_per_cycle::2     10807730      7.79%     87.68% # Number of insts commited each cycle
system.switch_cpus1.commit.committed_per_cycle::3      5662808      4.08%     91.77% # Number of insts commited each cycle
system.switch_cpus1.commit.committed_per_cycle::4      4515446      3.25%     95.02% # Number of insts commited each cycle
system.switch_cpus1.commit.committed_per_cycle::5      1621695      1.17%     96.19% # Number of insts commited each cycle
system.switch_cpus1.commit.committed_per_cycle::6      1379972      0.99%     97.18% # Number of insts commited each cycle
system.switch_cpus1.commit.committed_per_cycle::7      1029717      0.74%     97.93% # Number of insts commited each cycle
system.switch_cpus1.commit.committed_per_cycle::8      2878870      2.07%    100.00% # Number of insts commited each cycle
system.switch_cpus1.commit.committed_per_cycle::overflows            0      0.00%    100.00% # Number of insts commited each cycle
system.switch_cpus1.commit.committed_per_cycle::min_value            0                       # Number of insts commited each cycle
system.switch_cpus1.commit.committed_per_cycle::max_value            8                       # Number of insts commited each cycle
system.switch_cpus1.commit.committed_per_cycle::total    138756545                       # Number of insts commited each cycle
system.switch_cpus1.commit.committedInsts    104080640                       # Number of instructions committed
system.switch_cpus1.commit.committedOps     127820964                       # Number of ops (including micro ops) committed
system.switch_cpus1.commit.swp_count                0                       # Number of s/w prefetches committed
[...]
system.cpu2.icache.ReadReq_miss_latency::total      2776723                       # number of ReadReq miss cycles
system.cpu2.icache.demand_miss_latency::switch_cpus2.inst      2776723                       # number of demand (read+write) miss cycles
system.cpu2.icache.demand_miss_latency::total      2776723                       # number of demand (read+write) miss cycles
system.cpu2.icache.overall_miss_latency::switch_cpus2.inst      2776723                       # number of overall miss cycles
system.cpu2.icache.overall_miss_latency::total      2776723                       # number of overall miss cycles
system.cpu2.icache.ReadReq_accesses::switch_cpus2.inst     13071446                       # number of ReadReq accesses(hits+misses)
system.cpu2.icache.ReadReq_accesses::total     13071446                       # number of ReadReq accesses(hits+misses)
system.cpu2.icache.demand_accesses::switch_cpus2.inst     13071446                       # number of demand (read+write) accesses
system.cpu2.icache.demand_accesses::total     13071446                       # number of demand (read+write) accesses
system.cpu2.icache.overall_accesses::switch_cpus2.inst     13071446                       # number of overall (read+write) accesses
system.cpu2.icache.overall_accesses::total     13071446                       # number of overall (read+write) accesses
system.cpu2.icache.ReadReq_miss_rate::switch_cpus2.inst     0.000001                       # miss rate for ReadReq accesses
system.cpu2.icache.ReadReq_miss_rate::total     0.000001                       # miss rate for ReadReq accesses
system.cpu2.icache.demand_miss_rate::switch_cpus2.inst     0.000001                       # miss rate for demand accesses
system.cpu2.icache.demand_miss_rate::total     0.000001                       # miss rate for demand accesses
system.cpu2.icache.overall_miss_rate::switch_cpus2.inst     0.000001                       # miss rate for overall accesses
system.cpu2.icache.overall_miss_rate::total     0.000001                       # miss rate for overall accesses
system.cpu2.icache.ReadReq_avg_miss_latency::switch_cpus2.inst 173545.187500                       # average ReadReq miss latency
system.cpu2.icache.ReadReq_avg_miss_latency::total 173545.187500                       # average ReadReq miss latency
system.cpu2.icache.demand_avg_miss_latency::switch_cpus2.inst 173545.187500                       # average overall miss latency
system.cpu2.icache.demand_avg_miss_latency::total 173545.187500                       # average overall miss latency
system.cpu2.icache.overall_avg_miss_latency::switch_cpus2.inst 173545.187500                       # average overall miss latency
system.cpu2.icache.overall_avg_miss_latency::total 173545.187500                       # average overall miss latency
system.cpu2.icache.blocked_cycles::no_mshrs            0                       # number of cycles access was blocked
system.cpu2.icache.blocked_cycles::no_targets            0                       # number of cycles access was blocked
system.cpu2.icache.blocked::no_mshrs                0                       # number of cycles access was blocked
system.cpu2.icache.blocked::no_targets              0                       # number of cycles access was blocked
system.cpu2.icache.avg_blocked_cycles::no_mshrs          nan                       # average number of cycles each access was blocked
system.cpu2.icache.avg_blocked_cycles::no_targets          nan                       # average number of cycles each access was blocked
system.cpu2.icache.fast_writes                      0                       # number of fast writes performed
system.cpu2.icache.cache_copies                     0                       # number of cache copies performed
system.cpu2.icache.ReadReq_mshr_hits::switch_cpus2.inst            2                       # number of ReadReq MSHR hits
system.cpu2.icache.ReadReq_mshr_hits::total            2                       # number of ReadReq MSHR hits
system.cpu2.icache.demand_mshr_hits::switch_cpus2.inst            2                       # number of demand (read+write) MSHR hits
system.cpu2.icache.demand_mshr_hits::total            2                       # number of demand (read+write) MSHR hits
system.cpu2.icache.overall_mshr_hits::switch_cpus2.inst            2                       # number of overall MSHR hits
system.cpu2.icache.overall_mshr_hits::total            2                       # number of overall MSHR hits
system.cpu2.icache.ReadReq_mshr_misses::switch_cpus2.inst           14                       # number of ReadReq MSHR misses
system.cpu2.icache.ReadReq_mshr_misses::total           14                       # number of ReadReq MSHR misses
system.cpu2.icache.demand_mshr_misses::switch_cpus2.inst           14                       # number of demand (read+write) MSHR misses
system.cpu2.icache.demand_mshr_misses::total           14                       # number of demand (read+write) MSHR misses
system.cpu2.icache.overall_mshr_misses::switch_cpus2.inst           14                       # number of overall MSHR misses
system.cpu2.icache.overall_mshr_misses::total           14                       # number of overall MSHR misses
system.cpu2.icache.ReadReq_mshr_miss_latency::switch_cpus2.inst      2458215                       # number of ReadReq MSHR miss cycles
system.cpu2.icache.ReadReq_mshr_miss_latency::total      2458215                       # number of ReadReq MSHR miss cycles
system.cpu2.icache.demand_mshr_miss_latency::switch_cpus2.inst      2458215                       # number of demand (read+write) MSHR miss cycles
system.cpu2.icache.demand_mshr_miss_latency::total      2458215                       # number of demand (read+write) MSHR miss cycles
system.cpu2.icache.overall_mshr_miss_latency::switch_cpus2.inst      2458215                       # number of overall MSHR miss cycles
system.cpu2.icache.overall_mshr_miss_latency::total      2458215                       # number of overall MSHR miss cycles
system.cpu2.icache.ReadReq_mshr_miss_rate::switch_cpus2.inst     0.000001                       # mshr miss rate for ReadReq accesses
system.cpu2.icache.ReadReq_mshr_miss_rate::total     0.000001                       # mshr miss rate for ReadReq accesses
system.cpu2.icache.demand_mshr_miss_rate::switch_cpus2.inst     0.000001                       # mshr miss rate for demand accesses
system.cpu2.icache.demand_mshr_miss_rate::total     0.000001                       # mshr miss rate for demand accesses
system.cpu2.icache.overall_mshr_miss_rate::switch_cpus2.inst     0.000001                       # mshr miss rate for overall accesses
system.cpu2.icache.overall_mshr_miss_rate::total     0.000001                       # mshr miss rate for overall accesses
system.cpu2.icache.ReadReq_avg_mshr_miss_latency::switch_cpus2.inst 175586.785714                       # average ReadReq mshr miss latency
system.cpu2.icache.ReadReq_avg_mshr_miss_latency::total 175586.785714                       # average ReadReq mshr miss latency
system.cpu2.icache.demand_avg_mshr_miss_latency::switch_cpus2.inst 175586.785714                       # average overall mshr miss latency
system.cpu2.icache.demand_avg_mshr_miss_latency::total 175586.785714                       # average overall mshr miss latency
system.cpu2.icache.overall_avg_mshr_miss_latency::switch_cpus2.inst 175586.785714                       # average overall mshr miss latency
system.cpu2.icache.overall_avg_mshr_miss_latency::total 175586.785714                       # average overall mshr miss latency
system.cpu2.icache.no_allocate_misses               0                       # Number of misses that were no-allocate
system.cpu2.dcache.replacements                 48194                       # number of replacements
system.cpu2.dcache.tagsinuse                      256                       # Cycle average of tags in use
system.cpu2.dcache.total_refs               227332338                       # Total number of references to valid blocks.
system.cpu2.dcache.sampled_refs                 48450                       # Sample count of references to valid blocks.
system.cpu2.dcache.avg_refs               4692.101920                       # Average number of references to valid blocks.
system.cpu2.dcache.warmup_cycle                     0                       # Cycle when the warmup percentage was hit.
system.cpu2.dcache.occ_blocks::switch_cpus2.data   213.308117                       # Average occupied blocks per requestor
system.cpu2.dcache.occ_blocks::cpu2.data    42.691883                       # Average occupied blocks per requestor
system.cpu2.dcache.occ_percent::switch_cpus2.data     0.833235                       # Average percentage of cache occupancy
system.cpu2.dcache.occ_percent::cpu2.data     0.166765                       # Average percentage of cache occupancy
system.cpu2.dcache.occ_percent::total               1                       # Average percentage of cache occupancy
system.cpu2.dcache.ReadReq_hits::switch_cpus2.data     18793436                       # number of ReadReq hits
system.cpu2.dcache.ReadReq_hits::total       18793436                       # number of ReadReq hits
system.cpu2.dcache.WriteReq_hits::switch_cpus2.data      4217142                       # number of WriteReq hits
system.cpu2.dcache.WriteReq_hits::total       4217142                       # number of WriteReq hits
system.cpu2.dcache.LoadLockedReq_hits::switch_cpus2.data         9661                       # number of LoadLockedReq hits
system.cpu2.dcache.LoadLockedReq_hits::total         9661                       # number of LoadLockedReq hits
system.cpu2.dcache.StoreCondReq_hits::switch_cpus2.data         9646                       # number of StoreCondReq hits
system.cpu2.dcache.StoreCondReq_hits::total         9646                       # number of StoreCondReq hits
system.cpu2.dcache.demand_hits::switch_cpus2.data     23010578                       # number of demand (read+write) hits
system.cpu2.dcache.demand_hits::total        23010578                       # number of demand (read+write) hits
system.cpu2.dcache.overall_hits::switch_cpus2.data     23010578                       # number of overall hits
system.cpu2.dcache.overall_hits::total       23010578                       # number of overall hits
system.cpu2.dcache.ReadReq_misses::switch_cpus2.data       178099                       # number of ReadReq misses
system.cpu2.dcache.ReadReq_misses::total       178099                       # number of ReadReq misses
system.cpu2.dcache.demand_misses::switch_cpus2.data       178099                       # number of demand (read+write) misses
system.cpu2.dcache.demand_misses::total        178099                       # number of demand (read+write) misses
system.cpu2.dcache.overall_misses::switch_cpus2.data       178099                       # number of overall misses
system.cpu2.dcache.overall_misses::total       178099                       # number of overall misses
system.cpu2.dcache.ReadReq_miss_latency::switch_cpus2.data  21106560510                       # number of ReadReq miss cycles
system.cpu2.dcache.ReadReq_miss_latency::total  21106560510                       # number of ReadReq miss cycles
system.cpu2.dcache.demand_miss_latency::switch_cpus2.data  21106560510                       # number of demand (read+write) miss cycles
system.cpu2.dcache.demand_miss_latency::total  21106560510                       # number of demand (read+write) miss cycles
system.cpu2.dcache.overall_miss_latency::switch_cpus2.data  21106560510                       # number of overall miss cycles
system.cpu2.dcache.overall_miss_latency::total  21106560510                       # number of overall miss cycles
system.cpu2.dcache.ReadReq_accesses::switch_cpus2.data     18971535                       # number of ReadReq accesses(hits+misses)
system.cpu2.dcache.ReadReq_accesses::total     18971535                       # number of ReadReq accesses(hits+misses)
system.cpu2.dcache.WriteReq_accesses::switch_cpus2.data      4217142                       # number of WriteReq accesses(hits+misses)
system.cpu2.dcache.WriteReq_accesses::total      4217142                       # number of WriteReq accesses(hits+misses)
system.cpu2.dcache.LoadLockedReq_accesses::switch_cpus2.data         9661                       # number of LoadLockedReq accesses(hits+misses)
system.cpu2.dcache.LoadLockedReq_accesses::total         9661                       # number of LoadLockedReq accesses(hits+misses)
system.cpu2.dcache.StoreCondReq_accesses::switch_cpus2.data         9646                       # number of StoreCondReq accesses(hits+misses)
system.cpu2.dcache.StoreCondReq_accesses::total         9646                       # number of StoreCondReq accesses(hits+misses)
system.cpu2.dcache.demand_accesses::switch_cpus2.data     23188677                       # number of demand (read+write) accesses
system.cpu2.dcache.demand_accesses::total     23188677                       # number of demand (read+write) accesses
system.cpu2.dcache.overall_accesses::switch_cpus2.data     23188677                       # number of overall (read+write) accesses
system.cpu2.dcache.overall_accesses::total     23188677                       # number of overall (read+write) accesses
system.cpu2.dcache.ReadReq_miss_rate::switch_cpus2.data     0.009388                       # miss rate for ReadReq accesses
system.cpu2.dcache.ReadReq_miss_rate::total     0.009388                       # miss rate for ReadReq accesses
system.cpu2.dcache.demand_miss_rate::switch_cpus2.data     0.007680                       # miss rate for demand accesses
system.cpu2.dcache.demand_miss_rate::total     0.007680                       # miss rate for demand accesses
system.cpu2.dcache.overall_miss_rate::switch_cpus2.data     0.007680                       # miss rate for overall accesses
system.cpu2.dcache.overall_miss_rate::total     0.007680                       # miss rate for overall accesses
system.cpu2.dcache.ReadReq_avg_miss_latency::switch_cpus2.data 118510.269625                       # average ReadReq miss latency
system.cpu2.dcache.ReadReq_avg_miss_latency::total 118510.269625                       # average ReadReq miss latency
system.cpu2.dcache.demand_avg_miss_latency::switch_cpus2.data 118510.269625                       # average overall miss latency
system.cpu2.dcache.demand_avg_miss_latency::total 118510.269625                       # average overall miss latency
system.cpu2.dcache.overall_avg_miss_latency::switch_cpus2.data 118510.269625                       # average overall miss latency
system.cpu2.dcache.overall_avg_miss_latency::total 118510.269625                       # average overall miss latency
system.cpu2.dcache.blocked_cycles::no_mshrs            0                       # number of cycles access was blocked
system.cpu2.dcache.blocked_cycles::no_targets            0                       # number of cycles access was blocked
system.cpu2.dcache.blocked::no_mshrs                0                       # number of cycles access was blocked
system.cpu2.dcache.blocked::no_targets              0                       # number of cycles access was blocked
system.cpu2.dcache.avg_blocked_cycles::no_mshrs          nan                       # average number of cycles each access was blocked
system.cpu2.dcache.avg_blocked_cycles::no_targets          nan                       # average number of cycles each access was blocked
system.cpu2.dcache.fast_writes                      0                       # number of fast writes performed
system.cpu2.dcache.cache_copies                     0                       # number of cache copies performed
system.cpu2.dcache.writebacks::writebacks        10153                       # number of writebacks
system.cpu2.dcache.writebacks::total            10153                       # number of writebacks
system.cpu2.dcache.ReadReq_mshr_hits::switch_cpus2.data       129905                       # number of ReadReq MSHR hits
system.cpu2.dcache.ReadReq_mshr_hits::total       129905                       # number of ReadReq MSHR hits
system.cpu2.dcache.demand_mshr_hits::switch_cpus2.data       129905                       # number of demand (read+write) MSHR hits
system.cpu2.dcache.demand_mshr_hits::total       129905                       # number of demand (read+write) MSHR hits
system.cpu2.dcache.overall_mshr_hits::switch_cpus2.data       129905                       # number of overall MSHR hits
system.cpu2.dcache.overall_mshr_hits::total       129905                       # number of overall MSHR hits
system.cpu2.dcache.ReadReq_mshr_misses::switch_cpus2.data        48194                       # number of ReadReq MSHR misses
system.cpu2.dcache.ReadReq_mshr_misses::total        48194                       # number of ReadReq MSHR misses
system.cpu2.dcache.demand_mshr_misses::switch_cpus2.data        48194                       # number of demand (read+write) MSHR misses
system.cpu2.dcache.demand_mshr_misses::total        48194                       # number of demand (read+write) MSHR misses
system.cpu2.dcache.overall_mshr_misses::switch_cpus2.data        48194                       # number of overall MSHR misses
system.cpu2.dcache.overall_mshr_misses::total        48194                       # number of overall MSHR misses
system.cpu2.dcache.ReadReq_mshr_miss_latency::switch_cpus2.data   4999665813                       # number of ReadReq MSHR miss cycles
system.cpu2.dcache.ReadReq_mshr_miss_latency::total   4999665813                       # number of ReadReq MSHR miss cycles
system.cpu2.dcache.demand_mshr_miss_latency::switch_cpus2.data   4999665813                       # number of demand (read+write) MSHR miss cycles
system.cpu2.dcache.demand_mshr_miss_latency::total   4999665813                       # number of demand (read+write) MSHR miss cycles
system.cpu2.dcache.overall_mshr_miss_latency::switch_cpus2.data   4999665813                       # number of overall MSHR miss cycles
system.cpu2.dcache.overall_mshr_miss_latency::total   4999665813                       # number of overall MSHR miss cycles
system.cpu2.dcache.ReadReq_mshr_miss_rate::switch_cpus2.data     0.002540                       # mshr miss rate for ReadReq accesses
system.cpu2.dcache.ReadReq_mshr_miss_rate::total     0.002540                       # mshr miss rate for ReadReq accesses
system.cpu2.dcache.demand_mshr_miss_rate::switch_cpus2.data     0.002078                       # mshr miss rate for demand accesses
system.cpu2.dcache.demand_mshr_miss_rate::total     0.002078                       # mshr miss rate for demand accesses
system.cpu2.dcache.overall_mshr_miss_rate::switch_cpus2.data     0.002078                       # mshr miss rate for overall accesses
system.cpu2.dcache.overall_mshr_miss_rate::total     0.002078                       # mshr miss rate for overall accesses
system.cpu2.dcache.ReadReq_avg_mshr_miss_latency::switch_cpus2.data 103740.420239                       # average ReadReq mshr miss latency
system.cpu2.dcache.ReadReq_avg_mshr_miss_latency::total 103740.420239                       # average ReadReq mshr miss latency
system.cpu2.dcache.demand_avg_mshr_miss_latency::switch_cpus2.data 103740.420239                       # average overall mshr miss latency
system.cpu2.dcache.demand_avg_mshr_miss_latency::total 103740.420239                       # average overall mshr miss latency
system.cpu2.dcache.overall_avg_mshr_miss_latency::switch_cpus2.data 103740.420239                       # average overall mshr miss latency
system.cpu2.dcache.overall_avg_mshr_miss_latency::total 103740.420239                       # average overall mshr miss latency
system.cpu2.dcache.no_allocate_misses               0                       # Number of misses that were no-allocate

---------- End Simulation Statistics   ----------
