
---------- Begin Simulation Statistics ----------
sim_seconds                                  0.120420                       # Number of seconds simulated
sim_ticks                                120420188483                       # Number of ticks simulated
final_tick                               1178279009796                       # Number of ticks from beginning of simulation (restored from checkpoints and never reset)
sim_freq                                 1000000000000                       # Frequency of simulated ticks
host_inst_rate                                  93432                       # Simulator instruction rate (inst/s)
host_op_rate                                   117959                       # Simulator op (including micro ops) rate (op/s)
host_tick_rate                                3398608                       # Simulator tick rate (ticks/s)
host_mem_usage                               16908204                       # Number of bytes of host memory used
host_seconds                                 35432.21                       # Real time elapsed on the host
sim_insts                                  3310485822                       # Number of instructions simulated
sim_ops                                    4179530936                       # Number of ops (including micro ops) simulated
system.physmem.bytes_read::switch_cpus0.inst         1280                       # Number of bytes read from this memory
system.physmem.bytes_read::switch_cpus0.data      2205824                       # Number of bytes read from this memory
system.physmem.bytes_read::switch_cpus1.inst         1792                       # Number of bytes read from this memory
system.physmem.bytes_read::switch_cpus1.data      1107072                       # Number of bytes read from this memory
system.physmem.bytes_read::switch_cpus2.inst         2048                       # Number of bytes read from this memory
system.physmem.bytes_read::switch_cpus2.data       462720                       # Number of bytes read from this memory
system.physmem.bytes_read::total              3780736                       # Number of bytes read from this memory
system.physmem.bytes_inst_read::switch_cpus0.inst         1280                       # Number of instructions bytes read from this memory
system.physmem.bytes_inst_read::switch_cpus1.inst         1792                       # Number of instructions bytes read from this memory
system.physmem.bytes_inst_read::switch_cpus2.inst         2048                       # Number of instructions bytes read from this memory
system.physmem.bytes_inst_read::total            5120                       # Number of instructions bytes read from this memory
system.physmem.bytes_written::writebacks      1594752                       # Number of bytes written to this memory
system.physmem.bytes_written::total           1594752                       # Number of bytes written to this memory
system.physmem.num_reads::switch_cpus0.inst           10                       # Number of read requests responded to by this memory
system.physmem.num_reads::switch_cpus0.data        17233                       # Number of read requests responded to by this memory
system.physmem.num_reads::switch_cpus1.inst           14                       # Number of read requests responded to by this memory
system.physmem.num_reads::switch_cpus1.data         8649                       # Number of read requests responded to by this memory
system.physmem.num_reads::switch_cpus2.inst           16                       # Number of read requests responded to by this memory
system.physmem.num_reads::switch_cpus2.data         3615                       # Number of read requests responded to by this memory
system.physmem.num_reads::total                 29537                       # Number of read requests responded to by this memory
system.physmem.num_writes::writebacks           12459                       # Number of write requests responded to by this memory
system.physmem.num_writes::functional               0                       # Number of write requests responded to by this memory
system.physmem.num_writes::interrupt                0                       # Number of write requests responded to by this memory
system.physmem.num_writes::switch_cpus0.dtb.walker            0                       # Number of write requests responded to by this memory
system.physmem.num_writes::switch_cpus0.itb.walker            0                       # Number of write requests responded to by this memory
system.physmem.num_writes::switch_cpus0.inst            0                       # Number of write requests responded to by this memory
system.physmem.num_writes::switch_cpus0.data            0                       # Number of write requests responded to by this memory
system.physmem.num_writes::switch_cpus1.dtb.walker            0                       # Number of write requests responded to by this memory
system.physmem.num_writes::switch_cpus1.itb.walker            0                       # Number of write requests responded to by this memory
system.physmem.num_writes::switch_cpus1.inst            0                       # Number of write requests responded to by this memory
system.physmem.num_writes::switch_cpus1.data            0                       # Number of write requests responded to by this memory
system.physmem.num_writes::switch_cpus2.dtb.walker            0                       # Number of write requests responded to by this memory
system.physmem.num_writes::switch_cpus2.itb.walker            0                       # Number of write requests responded to by this memory
system.physmem.num_writes::switch_cpus2.inst            0                       # Number of write requests responded to by this memory
system.physmem.num_writes::switch_cpus2.data            0                       # Number of write requests responded to by this memory
system.physmem.num_writes::cpu0.dtb.walker            0                       # Number of write requests responded to by this memory
system.physmem.num_writes::cpu0.itb.walker            0                       # Number of write requests responded to by this memory
system.physmem.num_writes::cpu0.inst                0                       # Number of write requests responded to by this memory
system.physmem.num_writes::cpu0.data                0                       # Number of write requests responded to by this memory
system.physmem.num_writes::cpu1.dtb.walker            0                       # Number of write requests responded to by this memory
system.physmem.num_writes::cpu1.itb.walker            0                       # Number of write requests responded to by this memory
system.physmem.num_writes::cpu1.inst                0                       # Number of write requests responded to by this memory
system.physmem.num_writes::cpu1.data                0                       # Number of write requests responded to by this memory
system.physmem.num_writes::cpu2.dtb.walker            0                       # Number of write requests responded to by this memory
system.physmem.num_writes::cpu2.itb.walker            0                       # Number of write requests responded to by this memory
system.physmem.num_writes::cpu2.inst                0                       # Number of write requests responded to by this memory
system.physmem.num_writes::cpu2.data                0                       # Number of write requests responded to by this memory
system.physmem.num_writes::total                12459                       # Number of write requests responded to by this memory
system.physmem.bw_read::switch_cpus0.inst        10629                       # Total read bandwidth from this memory (bytes/s)
system.physmem.bw_read::switch_cpus0.data     18317726                       # Total read bandwidth from this memory (bytes/s)
system.physmem.bw_read::switch_cpus1.inst        14881                       # Total read bandwidth from this memory (bytes/s)
system.physmem.bw_read::switch_cpus1.data      9193409                       # Total read bandwidth from this memory (bytes/s)
system.physmem.bw_read::switch_cpus2.inst        17007                       # Total read bandwidth from this memory (bytes/s)
system.physmem.bw_read::switch_cpus2.data      3842545                       # Total read bandwidth from this memory (bytes/s)
system.physmem.bw_read::total                31396197                       # Total read bandwidth from this memory (bytes/s)
system.physmem.bw_inst_read::switch_cpus0.inst        10629                       # Instruction read bandwidth from this memory (bytes/s)
system.physmem.bw_inst_read::switch_cpus1.inst        14881                       # Instruction read bandwidth from this memory (bytes/s)
system.physmem.bw_inst_read::switch_cpus2.inst        17007                       # Instruction read bandwidth from this memory (bytes/s)
system.physmem.bw_inst_read::total              42518                       # Instruction read bandwidth from this memory (bytes/s)
system.physmem.bw_write::writebacks          13243228                       # Write bandwidth from this memory (bytes/s)
system.physmem.bw_write::total               13243228                       # Write bandwidth from this memory (bytes/s)
system.physmem.bw_total::writebacks          13243228                       # Total bandwidth to/from this memory (bytes/s)
system.physmem.bw_total::switch_cpus0.inst        10629                       # Total bandwidth to/from this memory (bytes/s)
system.physmem.bw_total::switch_cpus0.data     18317726                       # Total bandwidth to/from this memory (bytes/s)
system.physmem.bw_total::switch_cpus1.inst        14881                       # Total bandwidth to/from this memory (bytes/s)
system.physmem.bw_total::switch_cpus1.data      9193409                       # Total bandwidth to/from this memory (bytes/s)
system.physmem.bw_total::switch_cpus2.inst        17007                       # Total bandwidth to/from this memory (bytes/s)
system.physmem.bw_total::switch_cpus2.data      3842545                       # Total bandwidth to/from this memory (bytes/s)
system.physmem.bw_total::total               44639425                       # Total bandwidth to/from this memory (bytes/s)
system.switch_cpus0.dtb.inst_hits                   0                       # ITB inst hits
system.switch_cpus0.dtb.inst_misses                 0                       # ITB inst misses
system.switch_cpus0.dtb.read_hits                   0                       # DTB read hits
system.switch_cpus0.dtb.read_misses                 0                       # DTB read misses
system.switch_cpus0.dtb.write_hits                  0                       # DTB write hits
system.switch_cpus0.dtb.write_misses                0                       # DTB write misses
system.switch_cpus0.dtb.flush_tlb                   0                       # Number of times complete TLB was flushed
system.switch_cpus0.dtb.flush_tlb_mva               0                       # Number of times TLB was flushed by MVA
system.switch_cpus0.dtb.flush_tlb_mva_asid            0                       # Number of times TLB was flushed by MVA & ASID
system.switch_cpus0.dtb.flush_tlb_asid              0                       # Number of times TLB was flushed by ASID
system.switch_cpus0.dtb.flush_entries               0                       # Number of entries that have been flushed from TLB
system.switch_cpus0.dtb.align_faults                0                       # Number of TLB faults due to alignment restrictions
system.switch_cpus0.dtb.prefetch_faults             0                       # Number of TLB faults due to prefetch
system.switch_cpus0.dtb.domain_faults               0                       # Number of TLB faults due to domain restrictions
system.switch_cpus0.dtb.perms_faults                0                       # Number of TLB faults due to permissions restrictions
system.switch_cpus0.dtb.read_accesses               0                       # DTB read accesses
system.switch_cpus0.dtb.write_accesses              0                       # DTB write accesses
system.switch_cpus0.dtb.inst_accesses               0                       # ITB inst accesses
system.switch_cpus0.dtb.hits                        0                       # DTB hits
system.switch_cpus0.dtb.misses                      0                       # DTB misses
system.switch_cpus0.dtb.accesses                    0                       # DTB accesses
system.switch_cpus0.itb.inst_hits                   0                       # ITB inst hits
system.switch_cpus0.itb.inst_misses                 0                       # ITB inst misses
system.switch_cpus0.itb.read_hits                   0                       # DTB read hits
system.switch_cpus0.itb.read_misses                 0                       # DTB read misses
system.switch_cpus0.itb.write_hits                  0                       # DTB write hits
system.switch_cpus0.itb.write_misses                0                       # DTB write misses
system.switch_cpus0.itb.flush_tlb                   0                       # Number of times complete TLB was flushed
system.switch_cpus0.itb.flush_tlb_mva               0                       # Number of times TLB was flushed by MVA
system.switch_cpus0.itb.flush_tlb_mva_asid            0                       # Number of times TLB was flushed by MVA & ASID
system.switch_cpus0.itb.flush_tlb_asid              0                       # Number of times TLB was flushed by ASID
system.switch_cpus0.itb.flush_entries               0                       # Number of entries that have been flushed from TLB
system.switch_cpus0.itb.align_faults                0                       # Number of TLB faults due to alignment restrictions
system.switch_cpus0.itb.prefetch_faults             0                       # Number of TLB faults due to prefetch
system.switch_cpus0.itb.domain_faults               0                       # Number of TLB faults due to domain restrictions
system.switch_cpus0.itb.perms_faults                0                       # Number of TLB faults due to permissions restrictions
system.switch_cpus0.itb.read_accesses               0                       # DTB read accesses
system.switch_cpus0.itb.write_accesses              0                       # DTB write accesses
system.switch_cpus0.itb.inst_accesses               0                       # ITB inst accesses
system.switch_cpus0.itb.hits                        0                       # DTB hits
system.switch_cpus0.itb.misses                      0                       # DTB misses
system.switch_cpus0.itb.accesses                    0                       # DTB accesses
system.cpu0.workload.num_syscalls                   0                       # Number of system calls
system.switch_cpus0.numCycles               144562052                       # number of cpu cycles simulated
system.switch_cpus0.numWorkItemsStarted             0                       # number of work items this cpu started
system.switch_cpus0.numWorkItemsCompleted            0                       # number of work items this cpu completed
system.switch_cpus0.BPredUnit.lookups        23179572                       # Number of BP lookups
system.switch_cpus0.BPredUnit.condPredicted     19087499                       # Number of conditional branches predicted
system.switch_cpus0.BPredUnit.condIncorrect      1933425                       # Number of conditional branches incorrect
system.switch_cpus0.BPredUnit.BTBLookups      9374131                       # Number of BTB lookups
system.switch_cpus0.BPredUnit.BTBHits         8671659                       # Number of BTB hits
system.switch_cpus0.BPredUnit.BTBCorrect            0                       # Number of correct BTB predictions (this stat may not work properly.
system.switch_cpus0.BPredUnit.usedRAS         2438094                       # Number of times the RAS was used to get a target.
system.switch_cpus0.BPredUnit.RASInCorrect        87598                       # Number of incorrect RAS predictions.
system.switch_cpus0.fetch.icacheStallCycles    104516772                       # Number of cycles fetch is stalled on an Icache miss
system.switch_cpus0.fetch.Insts             128054234                       # Number of instructions fetch has processed
system.switch_cpus0.fetch.Branches           23179572                       # Number of branches that fetch encountered
system.switch_cpus0.fetch.predictedBranches     11109753                       # Number of branches that fetch has predicted taken
system.switch_cpus0.fetch.Cycles             27194984                       # Number of cycles fetch has run and was not squashing or blocked
system.switch_cpus0.fetch.SquashCycles        6265411                       # Number of cycles fetch has spent squashing
system.switch_cpus0.fetch.BlockedCycles       5566004                       # Number of cycles fetch has spent blocked
system.switch_cpus0.fetch.CacheLines         12108541                       # Number of cache lines fetched
system.switch_cpus0.fetch.IcacheSquashes      1574271                       # Number of outstanding Icache misses that were squashed
system.switch_cpus0.fetch.rateDist::samples    141577727                       # Number of instructions fetched each cycle (Total)
system.switch_cpus0.fetch.rateDist::mean     1.101755                       # Number of instructions fetched each cycle (Total)
system.switch_cpus0.fetch.rateDist::stdev     2.543732                       # Number of instructions fetched each cycle (Total)
system.switch_cpus0.fetch.rateDist::underflows            0      0.00%      0.00% # Number of instructions fetched each cycle (Total)
system.switch_cpus0.fetch.rateDist::0       114382743     80.79%     80.79% # Number of instructions fetched each cycle (Total)
system.switch_cpus0.fetch.rateDist::1         2785016      1.97%     82.76% # Number of instructions fetched each cycle (Total)
system.switch_cpus0.fetch.rateDist::2         2367201      1.67%     84.43% # Number of instructions fetched each cycle (Total)
system.switch_cpus0.fetch.rateDist::3         2381513      1.68%     86.11% # Number of instructions fetched each cycle (Total)
system.switch_cpus0.fetch.rateDist::4         2264364      1.60%     87.71% # Number of instructions fetched each cycle (Total)
system.switch_cpus0.fetch.rateDist::5         1126435      0.80%     88.51% # Number of instructions fetched each cycle (Total)
system.switch_cpus0.fetch.rateDist::6          777964      0.55%     89.06% # Number of instructions fetched each cycle (Total)
system.switch_cpus0.fetch.rateDist::7         1977280      1.40%     90.45% # Number of instructions fetched each cycle (Total)
system.switch_cpus0.fetch.rateDist::8        13515211      9.55%    100.00% # Number of instructions fetched each cycle (Total)
system.switch_cpus0.fetch.rateDist::overflows            0      0.00%    100.00% # Number of instructions fetched each cycle (Total)
system.switch_cpus0.fetch.rateDist::min_value            0                       # Number of instructions fetched each cycle (Total)
system.switch_cpus0.fetch.rateDist::max_value            8                       # Number of instructions fetched each cycle (Total)
system.switch_cpus0.fetch.rateDist::total    141577727                       # Number of instructions fetched each cycle (Total)
system.switch_cpus0.fetch.branchRate         0.160343                       # Number of branch fetches per cycle
system.switch_cpus0.fetch.rate               0.885808                       # Number of inst fetches per cycle
system.switch_cpus0.decode.IdleCycles       103345765                       # Number of cycles decode is idle
system.switch_cpus0.decode.BlockedCycles      6981747                       # Number of cycles decode is blocked
system.switch_cpus0.decode.RunCycles         26846908                       # Number of cycles decode is running
system.switch_cpus0.decode.UnblockCycles       109780                       # Number of cycles decode is unblocking
system.switch_cpus0.decode.SquashCycles       4293518                       # Number of cycles decode is squashing
system.switch_cpus0.decode.BranchResolved      3732641                       # Number of times decode resolved a branch
system.switch_cpus0.decode.BranchMispred         6450                       # Number of times decode detected a branch misprediction
system.switch_cpus0.decode.DecodedInsts     154458831                       # Number of instructions handled by decode
system.switch_cpus0.decode.SquashedInsts        51052                       # Number of squashed instructions handled by decode
system.switch_cpus0.rename.SquashCycles       4293518                       # Number of cycles rename is squashing
system.switch_cpus0.rename.IdleCycles       103861795                       # Number of cycles rename is idle
system.switch_cpus0.rename.BlockCycles        4333499                       # Number of cycles rename is blocking
system.switch_cpus0.rename.serializeStallCycles      1483232                       # count of cycles rename stalled for serializing inst
system.switch_cpus0.rename.RunCycles         26431101                       # Number of cycles rename is running
system.switch_cpus0.rename.UnblockCycles      1174574                       # Number of cycles rename is unblocking
system.switch_cpus0.rename.RenamedInsts     153004664                       # Number of instructions processed by rename
system.switch_cpus0.rename.ROBFullEvents         2456                       # Number of times rename has blocked due to ROB full
system.switch_cpus0.rename.IQFullEvents        402272                       # Number of times rename has blocked due to IQ full
system.switch_cpus0.rename.LSQFullEvents       621840                       # Number of times rename has blocked due to LSQ full
system.switch_cpus0.rename.FullRegisterEvents        24086                       # Number of times there has been no free registers
system.switch_cpus0.rename.RenamedOperands    214073603                       # Number of destination operands rename has renamed
system.switch_cpus0.rename.RenameLookups    713154841                       # Number of register rename lookups that rename has made
system.switch_cpus0.rename.int_rename_lookups    713154841                       # Number of integer rename lookups
system.switch_cpus0.rename.CommittedMaps    168259218                       # Number of HB maps that are committed
system.switch_cpus0.rename.UndoneMaps        45814378                       # Number of HB maps that are undone due to squashing
system.switch_cpus0.rename.serializingInsts        33832                       # count of serializing insts renamed
system.switch_cpus0.rename.tempSerializingInsts        17810                       # count of temporary serializing insts renamed
system.switch_cpus0.rename.skidInsts          3804927                       # count of insts added to the skid buffer
system.switch_cpus0.memDep0.insertedLoads     15187790                       # Number of loads inserted to the mem dependence unit.
system.switch_cpus0.memDep0.insertedStores      7901679                       # Number of stores inserted to the mem dependence unit.
system.switch_cpus0.memDep0.conflictingLoads       308956                       # Number of conflicting loads.
system.switch_cpus0.memDep0.conflictingStores      1694539                       # Number of conflicting stores.
system.switch_cpus0.iq.iqInstsAdded         149147165                       # Number of instructions added to the IQ (excludes non-spec)
system.switch_cpus0.iq.iqNonSpecInstsAdded        33831                       # Number of non-speculative instructions added to the IQ
system.switch_cpus0.iq.iqInstsIssued        139211289                       # Number of instructions issued
system.switch_cpus0.iq.iqSquashedInstsIssued       108263                       # Number of squashed instructions issued
system.switch_cpus0.iq.iqSquashedInstsExamined     25193301                       # Number of squashed instructions iterated over during squash; mainly for profiling
system.switch_cpus0.iq.iqSquashedOperandsExamined     57139956                       # Number of squashed operands that are examined and possibly removed from graph
system.switch_cpus0.iq.iqSquashedNonSpecRemoved         1787                       # Number of squashed non-spec instructions that were removed
system.switch_cpus0.iq.issued_per_cycle::samples    141577727                       # Number of insts issued each cycle
system.switch_cpus0.iq.issued_per_cycle::mean     0.983285                       # Number of insts issued each cycle
system.switch_cpus0.iq.issued_per_cycle::stdev     1.582139                       # Number of insts issued each cycle
system.switch_cpus0.iq.issued_per_cycle::underflows            0      0.00%      0.00% # Number of insts issued each cycle
system.switch_cpus0.iq.issued_per_cycle::0     84188410     59.46%     59.46% # Number of insts issued each cycle
system.switch_cpus0.iq.issued_per_cycle::1     23734278     16.76%     76.23% # Number of insts issued each cycle
system.switch_cpus0.iq.issued_per_cycle::2     11956486      8.45%     84.67% # Number of insts issued each cycle
system.switch_cpus0.iq.issued_per_cycle::3      7807496      5.51%     90.19% # Number of insts issued each cycle
system.switch_cpus0.iq.issued_per_cycle::4      6905798      4.88%     95.07% # Number of insts issued each cycle
system.switch_cpus0.iq.issued_per_cycle::5      2703498      1.91%     96.98% # Number of insts issued each cycle
system.switch_cpus0.iq.issued_per_cycle::6      3067248      2.17%     99.14% # Number of insts issued each cycle
system.switch_cpus0.iq.issued_per_cycle::7      1118723      0.79%     99.93% # Number of insts issued each cycle
system.switch_cpus0.iq.issued_per_cycle::8        95790      0.07%    100.00% # Number of insts issued each cycle
system.switch_cpus0.iq.issued_per_cycle::overflows            0      0.00%    100.00% # Number of insts issued each cycle
system.switch_cpus0.iq.issued_per_cycle::min_value            0                       # Number of insts issued each cycle
system.switch_cpus0.iq.issued_per_cycle::max_value            8                       # Number of insts issued each cycle
system.switch_cpus0.iq.issued_per_cycle::total    141577727                       # Number of insts issued each cycle
system.switch_cpus0.iq.fu_full::No_OpClass            0      0.00%      0.00% # attempts to use FU when none available
system.switch_cpus0.iq.fu_full::IntAlu         976709     74.80%     74.80% # attempts to use FU when none available
system.switch_cpus0.iq.fu_full::IntMult             0      0.00%     74.80% # attempts to use FU when none available
system.switch_cpus0.iq.fu_full::IntDiv              0      0.00%     74.80% # attempts to use FU when none available
system.switch_cpus0.iq.fu_full::FloatAdd            0      0.00%     74.80% # attempts to use FU when none available
system.switch_cpus0.iq.fu_full::FloatCmp            0      0.00%     74.80% # attempts to use FU when none available
system.switch_cpus0.iq.fu_full::FloatCvt            0      0.00%     74.80% # attempts to use FU when none available
system.switch_cpus0.iq.fu_full::FloatMult            0      0.00%     74.80% # attempts to use FU when none available
system.switch_cpus0.iq.fu_full::FloatDiv            0      0.00%     74.80% # attempts to use FU when none available
system.switch_cpus0.iq.fu_full::FloatSqrt            0      0.00%     74.80% # attempts to use FU when none available
system.switch_cpus0.iq.fu_full::SimdAdd             0      0.00%     74.80% # attempts to use FU when none available
system.switch_cpus0.iq.fu_full::SimdAddAcc            0      0.00%     74.80% # attempts to use FU when none available
system.switch_cpus0.iq.fu_full::SimdAlu             0      0.00%     74.80% # attempts to use FU when none available
system.switch_cpus0.iq.fu_full::SimdCmp             0      0.00%     74.80% # attempts to use FU when none available
system.switch_cpus0.iq.fu_full::SimdCvt             0      0.00%     74.80% # attempts to use FU when none available
system.switch_cpus0.iq.fu_full::SimdMisc            0      0.00%     74.80% # attempts to use FU when none available
system.switch_cpus0.iq.fu_full::SimdMult            0      0.00%     74.80% # attempts to use FU when none available
system.switch_cpus0.iq.fu_full::SimdMultAcc            0      0.00%     74.80% # attempts to use FU when none available
system.switch_cpus0.iq.fu_full::SimdShift            0      0.00%     74.80% # attempts to use FU when none available
system.switch_cpus0.iq.fu_full::SimdShiftAcc            0      0.00%     74.80% # attempts to use FU when none available
system.switch_cpus0.iq.fu_full::SimdSqrt            0      0.00%     74.80% # attempts to use FU when none available
system.switch_cpus0.iq.fu_full::SimdFloatAdd            0      0.00%     74.80% # attempts to use FU when none available
system.switch_cpus0.iq.fu_full::SimdFloatAlu            0      0.00%     74.80% # attempts to use FU when none available
system.switch_cpus0.iq.fu_full::SimdFloatCmp            0      0.00%     74.80% # attempts to use FU when none available
system.switch_cpus0.iq.fu_full::SimdFloatCvt            0      0.00%     74.80% # attempts to use FU when none available
system.switch_cpus0.iq.fu_full::SimdFloatDiv            0      0.00%     74.80% # attempts to use FU when none available
system.switch_cpus0.iq.fu_full::SimdFloatMisc            0      0.00%     74.80% # attempts to use FU when none available
system.switch_cpus0.iq.fu_full::SimdFloatMult            0      0.00%     74.80% # attempts to use FU when none available
system.switch_cpus0.iq.fu_full::SimdFloatMultAcc            0      0.00%     74.80% # attempts to use FU when none available
system.switch_cpus0.iq.fu_full::SimdFloatSqrt            0      0.00%     74.80% # attempts to use FU when none available
system.switch_cpus0.iq.fu_full::MemRead        156419     11.98%     86.78% # attempts to use FU when none available
system.switch_cpus0.iq.fu_full::MemWrite       172668     13.22%    100.00% # attempts to use FU when none available
system.switch_cpus0.iq.fu_full::IprAccess            0      0.00%    100.00% # attempts to use FU when none available
system.switch_cpus0.iq.fu_full::InstPrefetch            0      0.00%    100.00% # attempts to use FU when none available
system.switch_cpus0.iq.FU_type_0::No_OpClass            0      0.00%      0.00% # Type of FU issued
system.switch_cpus0.iq.FU_type_0::IntAlu    114975540     82.59%     82.59% # Type of FU issued
system.switch_cpus0.iq.FU_type_0::IntMult      2012451      1.45%     84.04% # Type of FU issued
system.switch_cpus0.iq.FU_type_0::IntDiv            0      0.00%     84.04% # Type of FU issued
system.switch_cpus0.iq.FU_type_0::FloatAdd            0      0.00%     84.04% # Type of FU issued
system.switch_cpus0.iq.FU_type_0::FloatCmp            0      0.00%     84.04% # Type of FU issued
system.switch_cpus0.iq.FU_type_0::FloatCvt            0      0.00%     84.04% # Type of FU issued
system.switch_cpus0.iq.FU_type_0::FloatMult            0      0.00%     84.04% # Type of FU issued
system.switch_cpus0.iq.FU_type_0::FloatDiv            0      0.00%     84.04% # Type of FU issued
system.switch_cpus0.iq.FU_type_0::FloatSqrt            0      0.00%     84.04% # Type of FU issued
system.switch_cpus0.iq.FU_type_0::SimdAdd            0      0.00%     84.04% # Type of FU issued
system.switch_cpus0.iq.FU_type_0::SimdAddAcc            0      0.00%     84.04% # Type of FU issued
system.switch_cpus0.iq.FU_type_0::SimdAlu            0      0.00%     84.04% # Type of FU issued
system.switch_cpus0.iq.FU_type_0::SimdCmp            0      0.00%     84.04% # Type of FU issued
system.switch_cpus0.iq.FU_type_0::SimdCvt            0      0.00%     84.04% # Type of FU issued
system.switch_cpus0.iq.FU_type_0::SimdMisc            0      0.00%     84.04% # Type of FU issued
system.switch_cpus0.iq.FU_type_0::SimdMult            0      0.00%     84.04% # Type of FU issued
system.switch_cpus0.iq.FU_type_0::SimdMultAcc            0      0.00%     84.04% # Type of FU issued
system.switch_cpus0.iq.FU_type_0::SimdShift            0      0.00%     84.04% # Type of FU issued
system.switch_cpus0.iq.FU_type_0::SimdShiftAcc            0      0.00%     84.04% # Type of FU issued
system.switch_cpus0.iq.FU_type_0::SimdSqrt            0      0.00%     84.04% # Type of FU issued
system.switch_cpus0.iq.FU_type_0::SimdFloatAdd            0      0.00%     84.04% # Type of FU issued
system.switch_cpus0.iq.FU_type_0::SimdFloatAlu            0      0.00%     84.04% # Type of FU issued
system.switch_cpus0.iq.FU_type_0::SimdFloatCmp            0      0.00%     84.04% # Type of FU issued
system.switch_cpus0.iq.FU_type_0::SimdFloatCvt            0      0.00%     84.04% # Type of FU issued
system.switch_cpus0.iq.FU_type_0::SimdFloatDiv            0      0.00%     84.04% # Type of FU issued
system.switch_cpus0.iq.FU_type_0::SimdFloatMisc        16022      0.01%     84.05% # Type of FU issued
system.switch_cpus0.iq.FU_type_0::SimdFloatMult            0      0.00%     84.05% # Type of FU issued
system.switch_cpus0.iq.FU_type_0::SimdFloatMultAcc            0      0.00%     84.05% # Type of FU issued
system.switch_cpus0.iq.FU_type_0::SimdFloatSqrt            0      0.00%     84.05% # Type of FU issued
system.switch_cpus0.iq.FU_type_0::MemRead     14362650     10.32%     94.36% # Type of FU issued
system.switch_cpus0.iq.FU_type_0::MemWrite      7844626      5.64%    100.00% # Type of FU issued
system.switch_cpus0.iq.FU_type_0::IprAccess            0      0.00%    100.00% # Type of FU issued
system.switch_cpus0.iq.FU_type_0::InstPrefetch            0      0.00%    100.00% # Type of FU issued
system.switch_cpus0.iq.FU_type_0::total     139211289                       # Type of FU issued
system.switch_cpus0.iq.rate                  0.962986                       # Inst issue rate
system.switch_cpus0.iq.fu_busy_cnt            1305796                       # FU busy when requested
system.switch_cpus0.iq.fu_busy_rate          0.009380                       # FU busy rate (busy events/executed inst)
system.switch_cpus0.iq.int_inst_queue_reads    421414364                       # Number of integer instruction queue reads
system.switch_cpus0.iq.int_inst_queue_writes    174374973                       # Number of integer instruction queue writes
system.switch_cpus0.iq.int_inst_queue_wakeup_accesses    135095318                       # Number of integer instruction queue wakeup accesses
system.switch_cpus0.iq.fp_inst_queue_reads            0                       # Number of floating instruction queue reads
system.switch_cpus0.iq.fp_inst_queue_writes            0                       # Number of floating instruction queue writes
system.switch_cpus0.iq.fp_inst_queue_wakeup_accesses            0                       # Number of floating instruction queue wakeup accesses
system.switch_cpus0.iq.int_alu_accesses     140517085                       # Number of integer alu accesses
system.switch_cpus0.iq.fp_alu_accesses              0                       # Number of floating point alu accesses
system.switch_cpus0.iew.lsq.thread0.forwLoads       200785                       # Number of loads that had data forwarded from stores
system.switch_cpus0.iew.lsq.thread0.invAddrLoads            0                       # Number of loads ignored due to an invalid address
system.switch_cpus0.iew.lsq.thread0.squashedLoads      2975661                       # Number of loads squashed
system.switch_cpus0.iew.lsq.thread0.ignoredResponses         1190                       # Number of memory responses ignored because the instruction is squashed
system.switch_cpus0.iew.lsq.thread0.memOrderViolation          687                       # Number of memory ordering violations
system.switch_cpus0.iew.lsq.thread0.squashedStores       160009                       # Number of stores squashed
system.switch_cpus0.iew.lsq.thread0.invAddrSwpfs            0                       # Number of software prefetches ignored due to an invalid address
system.switch_cpus0.iew.lsq.thread0.blockedLoads            0                       # Number of blocked loads due to partial load-store forwarding
system.switch_cpus0.iew.lsq.thread0.rescheduledLoads          591                       # Number of loads that were rescheduled
system.switch_cpus0.iew.lsq.thread0.cacheBlocked            0                       # Number of times an access to memory failed due to the cache being blocked
system.switch_cpus0.iew.iewIdleCycles               0                       # Number of cycles IEW is idle
system.switch_cpus0.iew.iewSquashCycles       4293518                       # Number of cycles IEW is squashing
system.switch_cpus0.iew.iewBlockCycles        3639518                       # Number of cycles IEW is blocking
system.switch_cpus0.iew.iewUnblockCycles       255432                       # Number of cycles IEW is unblocking
system.switch_cpus0.iew.iewDispatchedInsts    149180996                       # Number of instructions dispatched to IQ
system.switch_cpus0.iew.iewDispSquashedInsts      1163784                       # Number of squashed instructions skipped by dispatch
system.switch_cpus0.iew.iewDispLoadInsts     15187790                       # Number of dispatched load instructions
system.switch_cpus0.iew.iewDispStoreInsts      7901679                       # Number of dispatched store instructions
system.switch_cpus0.iew.iewDispNonSpecInsts        17809                       # Number of dispatched non-speculative instructions
system.switch_cpus0.iew.iewIQFullEvents        203846                       # Number of times the IQ has become full, causing a stall
system.switch_cpus0.iew.iewLSQFullEvents        13047                       # Number of times the LSQ has become full, causing a stall
system.switch_cpus0.iew.memOrderViolationEvents          687                       # Number of memory order violations
system.switch_cpus0.iew.predictedTakenIncorrect      1150031                       # Number of branches that were predicted taken incorrectly
system.switch_cpus0.iew.predictedNotTakenIncorrect      1085219                       # Number of branches that were predicted not taken incorrectly
system.switch_cpus0.iew.branchMispredicts      2235250                       # Number of branch mispredicts detected at execute
system.switch_cpus0.iew.iewExecutedInsts    136835300                       # Number of executed instructions
system.switch_cpus0.iew.iewExecLoadInsts     14112133                       # Number of load instructions executed
system.switch_cpus0.iew.iewExecSquashedInsts      2375989                       # Number of squashed instructions skipped in execute
system.switch_cpus0.iew.exec_swp                    0                       # number of swp insts executed
system.switch_cpus0.iew.exec_nop                    0                       # number of nop insts executed
system.switch_cpus0.iew.exec_refs            21955112                       # number of memory reference insts executed
system.switch_cpus0.iew.exec_branches        19296633                       # Number of branches executed
system.switch_cpus0.iew.exec_stores           7842979                       # Number of stores executed
system.switch_cpus0.iew.exec_rate            0.946551                       # Inst execution rate
system.switch_cpus0.iew.wb_sent             135101518                       # cumulative count of insts sent to commit
system.switch_cpus0.iew.wb_count            135095318                       # cumulative count of insts written-back
system.switch_cpus0.iew.wb_producers         81527048                       # num instructions producing a value
system.switch_cpus0.iew.wb_consumers        221164367                       # num instructions consuming a value
system.switch_cpus0.iew.wb_penalized                0                       # number of instrctions required to write to 'other' IQ
system.switch_cpus0.iew.wb_rate              0.934514                       # insts written-back per cycle
system.switch_cpus0.iew.wb_fanout            0.368627                       # average fanout of values written-back
system.switch_cpus0.iew.wb_penalized_rate            0                       # fraction of instructions written-back that wrote to 'other' IQ
system.switch_cpus0.commit.commitCommittedInsts    100000000                       # The number of committed instructions
system.switch_cpus0.commit.commitCommittedOps    122421916                       # The number of committed instructions
system.switch_cpus0.commit.commitSquashedInsts     26767647                       # The number of squashed insts skipped by commit
system.switch_cpus0.commit.commitNonSpecStalls        32044                       # The number of times commit has been forced to stall to communicate backwards
system.switch_cpus0.commit.branchMispredicts      1958460                       # The number of times a branch was mispredicted
system.switch_cpus0.commit.committed_per_cycle::samples    137284209                       # Number of insts commited each cycle
system.switch_cpus0.commit.committed_per_cycle::mean     0.891741                       # Number of insts commited each cycle
system.switch_cpus0.commit.committed_per_cycle::stdev     1.708994                       # Number of insts commited each cycle
system.switch_cpus0.commit.committed_per_cycle::underflows            0      0.00%      0.00% # Number of insts commited each cycle
system.switch_cpus0.commit.committed_per_cycle::0     88180866     64.23%     64.23% # Number of insts commited each cycle
system.switch_cpus0.commit.committed_per_cycle::1     22510223     16.40%     80.63% # Number of insts commited each cycle
system.switch_cpus0.commit.committed_per_cycle::2     10810224      7.87%     88.50% # Number of insts commited each cycle
system.switch_cpus0.commit.committed_per_cycle::3      4815973      3.51%     92.01% # Number of insts commited each cycle
system.switch_cpus0.commit.committed_per_cycle::4      3765398      2.74%     94.75% # Number of insts commited each cycle
system.switch_cpus0.commit.committed_per_cycle::5      1537143      1.12%     95.87% # Number of insts commited each cycle
system.switch_cpus0.commit.committed_per_cycle::6      1562115      1.14%     97.01% # Number of insts commited each cycle
system.switch_cpus0.commit.committed_per_cycle::7      1094807      0.80%     97.81% # Number of insts commited each cycle
system.switch_cpus0.commit.committed_per_cycle::8      3007460      2.19%    100.00% # Number of insts commited each cycle
system.switch_cpus0.commit.committed_per_cycle::overflows            0      0.00%    100.00% # Number of insts commited each cycle
system.switch_cpus0.commit.committed_per_cycle::min_value            0                       # Number of insts commited each cycle
system.switch_cpus0.commit.committed_per_cycle::max_value            8                       # Number of insts commited each cycle
system.switch_cpus0.commit.committed_per_cycle::total    137284209                       # Number of insts commited each cycle
system.switch_cpus0.commit.committedInsts    100000000                       # Number of instructions committed
system.switch_cpus0.commit.committedOps     122421916                       # Number of ops (including micro ops) committed
system.switch_cpus0.commit.swp_count                0                       # Number of s/w prefetches committed
system.switch_cpus0.commit.refs              19953796                       # Number of memory references committed
system.switch_cpus0.commit.loads             12212126                       # Number of loads committed
system.switch_cpus0.commit.membars              16022                       # Number of memory barriers committed
system.switch_cpus0.commit.branches          17573934                       # Number of branches committed
system.switch_cpus0.commit.fp_insts                 0                       # Number of committed floating point instructions.
system.switch_cpus0.commit.int_insts        110146122                       # Number of committed integer instructions.
system.switch_cpus0.commit.function_calls      2413416                       # Number of function calls committed.
system.switch_cpus0.commit.bw_lim_events      3007460                       # number cycles where commit BW limit reached
system.switch_cpus0.commit.bw_limited               0                       # number of insts not committed due to BW limits
system.switch_cpus0.rob.rob_reads           283466312                       # The number of ROB reads
system.switch_cpus0.rob.rob_writes          302672887                       # The number of ROB writes
system.switch_cpus0.timesIdled                  56869                       # Number of times that the entire CPU went into an idle state and unscheduled itself
system.switch_cpus0.idleCycles                2984325                       # Total number of cycles that the CPU has spent unscheduled due to idling
system.switch_cpus0.committedInsts          100000000                       # Number of Instructions Simulated
system.switch_cpus0.committedOps            122421916                       # Number of Ops (including micro ops) Simulated
system.switch_cpus0.committedInsts_total    100000000                       # Number of Instructions Simulated
system.switch_cpus0.cpi                      1.445621                       # CPI: Cycles Per Instruction
system.switch_cpus0.cpi_total                1.445621                       # CPI: Total CPI of All Threads
system.switch_cpus0.ipc                      0.691744                       # IPC: Instructions Per Cycle
system.switch_cpus0.ipc_total                0.691744                       # IPC: Total IPC of All Threads
system.switch_cpus0.int_regfile_reads       618342149                       # number of integer regfile reads
system.switch_cpus0.int_regfile_writes      186416821                       # number of integer regfile writes
system.switch_cpus0.misc_regfile_reads      145828470                       # number of misc regfile reads
system.switch_cpus0.misc_regfile_writes         32044                       # number of misc regfile writes
system.switch_cpus1.dtb.inst_hits                   0                       # ITB inst hits
system.switch_cpus1.dtb.inst_misses                 0                       # ITB inst misses
system.switch_cpus1.dtb.read_hits                   0                       # DTB read hits
system.switch_cpus1.dtb.read_misses                 0                       # DTB read misses
system.switch_cpus1.dtb.write_hits                  0                       # DTB write hits
system.switch_cpus1.dtb.write_misses                0                       # DTB write misses
system.switch_cpus1.dtb.flush_tlb                   0                       # Number of times complete TLB was flushed
system.switch_cpus1.dtb.flush_tlb_mva               0                       # Number of times TLB was flushed by MVA
system.switch_cpus1.dtb.flush_tlb_mva_asid            0                       # Number of times TLB was flushed by MVA & ASID
system.switch_cpus1.dtb.flush_tlb_asid              0                       # Number of times TLB was flushed by ASID
system.switch_cpus1.dtb.flush_entries               0                       # Number of entries that have been flushed from TLB
system.switch_cpus1.dtb.align_faults                0                       # Number of TLB faults due to alignment restrictions
system.switch_cpus1.dtb.prefetch_faults             0                       # Number of TLB faults due to prefetch
system.switch_cpus1.dtb.domain_faults               0                       # Number of TLB faults due to domain restrictions
system.switch_cpus1.dtb.perms_faults                0                       # Number of TLB faults due to permissions restrictions
system.switch_cpus1.dtb.read_accesses               0                       # DTB read accesses
system.switch_cpus1.dtb.write_accesses              0                       # DTB write accesses
system.switch_cpus1.dtb.inst_accesses               0                       # ITB inst accesses
system.switch_cpus1.dtb.hits                        0                       # DTB hits
system.switch_cpus1.dtb.misses                      0                       # DTB misses
system.switch_cpus1.dtb.accesses                    0                       # DTB accesses
system.switch_cpus1.itb.inst_hits                   0                       # ITB inst hits
system.switch_cpus1.itb.inst_misses                 0                       # ITB inst misses
system.switch_cpus1.itb.read_hits                   0                       # DTB read hits
system.switch_cpus1.itb.read_misses                 0                       # DTB read misses
system.switch_cpus1.itb.write_hits                  0                       # DTB write hits
system.switch_cpus1.itb.write_misses                0                       # DTB write misses
system.switch_cpus1.itb.flush_tlb                   0                       # Number of times complete TLB was flushed
system.switch_cpus1.itb.flush_tlb_mva               0                       # Number of times TLB was flushed by MVA
system.switch_cpus1.itb.flush_tlb_mva_asid            0                       # Number of times TLB was flushed by MVA & ASID
system.switch_cpus1.itb.flush_tlb_asid              0                       # Number of times TLB was flushed by ASID
system.switch_cpus1.itb.flush_entries               0                       # Number of entries that have been flushed from TLB
system.switch_cpus1.itb.align_faults                0                       # Number of TLB faults due to alignment restrictions
system.switch_cpus1.itb.prefetch_faults             0                       # Number of TLB faults due to prefetch
system.switch_cpus1.itb.domain_faults               0                       # Number of TLB faults due to domain restrictions
system.switch_cpus1.itb.perms_faults                0                       # Number of TLB faults due to permissions restrictions
system.switch_cpus1.itb.read_accesses               0                       # DTB read accesses
system.switch_cpus1.itb.write_accesses              0                       # DTB write accesses
system.switch_cpus1.itb.inst_accesses               0                       # ITB inst accesses
system.switch_cpus1.itb.hits                        0                       # DTB hits
system.switch_cpus1.itb.misses                      0                       # DTB misses
system.switch_cpus1.itb.accesses                    0                       # DTB accesses
system.cpu1.workload.num_syscalls                   0                       # Number of system calls
system.switch_cpus1.numCycles               144562052                       # number of cpu cycles simulated
system.switch_cpus1.numWorkItemsStarted             0                       # number of work items this cpu started
system.switch_cpus1.numWorkItemsCompleted            0                       # number of work items this cpu completed
system.switch_cpus1.BPredUnit.lookups        22337435                       # Number of BP lookups
system.switch_cpus1.BPredUnit.condPredicted     18413570                       # Number of conditional branches predicted
system.switch_cpus1.BPredUnit.condIncorrect      1994295                       # Number of conditional branches incorrect
system.switch_cpus1.BPredUnit.BTBLookups      9221658                       # Number of BTB lookups
system.switch_cpus1.BPredUnit.BTBHits         8569916                       # Number of BTB hits
system.switch_cpus1.BPredUnit.BTBCorrect            0                       # Number of correct BTB predictions (this stat may not work properly.
system.switch_cpus1.BPredUnit.usedRAS         2344724                       # Number of times the RAS was used to get a target.
system.switch_cpus1.BPredUnit.RASInCorrect        88457                       # Number of incorrect RAS predictions.
system.switch_cpus1.fetch.icacheStallCycles    108844193                       # Number of cycles fetch is stalled on an Icache miss
system.switch_cpus1.fetch.Insts             122686704                       # Number of instructions fetch has processed
system.switch_cpus1.fetch.Branches           22337435                       # Number of branches that fetch encountered
system.switch_cpus1.fetch.predictedBranches     10914640                       # Number of branches that fetch has predicted taken
system.switch_cpus1.fetch.Cycles             25650201                       # Number of cycles fetch has run and was not squashing or blocked
system.switch_cpus1.fetch.SquashCycles        5899872                       # Number of cycles fetch has spent squashing
system.switch_cpus1.fetch.BlockedCycles       3422198                       # Number of cycles fetch has spent blocked
system.switch_cpus1.fetch.CacheLines         12628124                       # Number of cache lines fetched
system.switch_cpus1.fetch.IcacheSquashes      1650935                       # Number of outstanding Icache misses that were squashed
system.switch_cpus1.fetch.rateDist::samples    141788857                       # Number of instructions fetched each cycle (Total)
system.switch_cpus1.fetch.rateDist::mean     1.062515                       # Number of instructions fetched each cycle (Total)
system.switch_cpus1.fetch.rateDist::stdev     2.482722                       # Number of instructions fetched each cycle (Total)
system.switch_cpus1.fetch.rateDist::underflows            0      0.00%      0.00% # Number of instructions fetched each cycle (Total)
system.switch_cpus1.fetch.rateDist::0       116138656     81.91%     81.91% # Number of instructions fetched each cycle (Total)
system.switch_cpus1.fetch.rateDist::1         1338466      0.94%     82.85% # Number of instructions fetched each cycle (Total)
system.switch_cpus1.fetch.rateDist::2         1894378      1.34%     84.19% # Number of instructions fetched each cycle (Total)
system.switch_cpus1.fetch.rateDist::3         2476954      1.75%     85.94% # Number of instructions fetched each cycle (Total)
system.switch_cpus1.fetch.rateDist::4         2774698      1.96%     87.89% # Number of instructions fetched each cycle (Total)
system.switch_cpus1.fetch.rateDist::5         2066686      1.46%     89.35% # Number of instructions fetched each cycle (Total)
system.switch_cpus1.fetch.rateDist::6         1191025      0.84%     90.19% # Number of instructions fetched each cycle (Total)
system.switch_cpus1.fetch.rateDist::7         1747648      1.23%     91.42% # Number of instructions fetched each cycle (Total)
system.switch_cpus1.fetch.rateDist::8        12160346      8.58%    100.00% # Number of instructions fetched each cycle (Total)
system.switch_cpus1.fetch.rateDist::overflows            0      0.00%    100.00% # Number of instructions fetched each cycle (Total)
system.switch_cpus1.fetch.rateDist::min_value            0                       # Number of instructions fetched each cycle (Total)
system.switch_cpus1.fetch.rateDist::max_value            8                       # Number of instructions fetched each cycle (Total)
system.switch_cpus1.fetch.rateDist::total    141788857                       # Number of instructions fetched each cycle (Total)
system.switch_cpus1.fetch.branchRate         0.154518                       # Number of branch fetches per cycle
system.switch_cpus1.fetch.rate               0.848678                       # Number of inst fetches per cycle
system.switch_cpus1.decode.IdleCycles       107643758                       # Number of cycles decode is idle
system.switch_cpus1.decode.BlockedCycles      5022863                       # Number of cycles decode is blocked
system.switch_cpus1.decode.RunCycles         25191627                       # Number of cycles decode is running
system.switch_cpus1.decode.UnblockCycles        58576                       # Number of cycles decode is unblocking
system.switch_cpus1.decode.SquashCycles       3872032                       # Number of cycles decode is squashing
system.switch_cpus1.decode.BranchResolved      3568373                       # Number of times decode resolved a branch
system.switch_cpus1.decode.BranchMispred          239                       # Number of times decode detected a branch misprediction
system.switch_cpus1.decode.DecodedInsts     148051739                       # Number of instructions handled by decode
system.switch_cpus1.decode.SquashedInsts         1310                       # Number of squashed instructions handled by decode
system.switch_cpus1.rename.SquashCycles       3872032                       # Number of cycles rename is squashing
system.switch_cpus1.rename.IdleCycles       108390461                       # Number of cycles rename is idle
system.switch_cpus1.rename.BlockCycles        1073048                       # Number of cycles rename is blocking
system.switch_cpus1.rename.serializeStallCycles      2613749                       # count of cycles rename stalled for serializing inst
system.switch_cpus1.rename.RunCycles         24506237                       # Number of cycles rename is running
system.switch_cpus1.rename.UnblockCycles      1333324                       # Number of cycles rename is unblocking
system.switch_cpus1.rename.RenamedInsts     147068183                       # Number of instructions processed by rename
system.switch_cpus1.rename.ROBFullEvents         1145                       # Number of times rename has blocked due to ROB full
system.switch_cpus1.rename.IQFullEvents        268377                       # Number of times rename has blocked due to IQ full
system.switch_cpus1.rename.LSQFullEvents       551449                       # Number of times rename has blocked due to LSQ full
system.switch_cpus1.rename.FullRegisterEvents          991                       # Number of times there has been no free registers
system.switch_cpus1.rename.RenamedOperands    205088660                       # Number of destination operands rename has renamed
system.switch_cpus1.rename.RenameLookups    687070255                       # Number of register rename lookups that rename has made
system.switch_cpus1.rename.int_rename_lookups    687070255                       # Number of integer rename lookups
system.switch_cpus1.rename.CommittedMaps    167600014                       # Number of HB maps that are committed
system.switch_cpus1.rename.UndoneMaps        37488613                       # Number of HB maps that are undone due to squashing
system.switch_cpus1.rename.serializingInsts        38904                       # count of serializing insts renamed
system.switch_cpus1.rename.tempSerializingInsts        22543                       # count of temporary serializing insts renamed
system.switch_cpus1.rename.skidInsts          4027160                       # count of insts added to the skid buffer
system.switch_cpus1.memDep0.insertedLoads     13977070                       # Number of loads inserted to the mem dependence unit.
system.switch_cpus1.memDep0.insertedStores      7262885                       # Number of stores inserted to the mem dependence unit.
system.switch_cpus1.memDep0.conflictingLoads       120208                       # Number of conflicting loads.
system.switch_cpus1.memDep0.conflictingStores      1584465                       # Number of conflicting stores.
system.switch_cpus1.iq.iqInstsAdded         142930186                       # Number of instructions added to the IQ (excludes non-spec)
system.switch_cpus1.iq.iqNonSpecInstsAdded        38862                       # Number of non-speculative instructions added to the IQ
system.switch_cpus1.iq.iqInstsIssued        133778030                       # Number of instructions issued
system.switch_cpus1.iq.iqSquashedInstsIssued        26828                       # Number of squashed instructions issued
system.switch_cpus1.iq.iqSquashedInstsExamined     20544014                       # Number of squashed instructions iterated over during squash; mainly for profiling
system.switch_cpus1.iq.iqSquashedOperandsExamined     48435472                       # Number of squashed operands that are examined and possibly removed from graph
system.switch_cpus1.iq.iqSquashedNonSpecRemoved         6142                       # Number of squashed non-spec instructions that were removed
system.switch_cpus1.iq.issued_per_cycle::samples    141788857                       # Number of insts issued each cycle
system.switch_cpus1.iq.issued_per_cycle::mean     0.943502                       # Number of insts issued each cycle
system.switch_cpus1.iq.issued_per_cycle::stdev     1.504581                       # Number of insts issued each cycle
system.switch_cpus1.iq.issued_per_cycle::underflows            0      0.00%      0.00% # Number of insts issued each cycle
system.switch_cpus1.iq.issued_per_cycle::0     85174403     60.07%     60.07% # Number of insts issued each cycle
system.switch_cpus1.iq.issued_per_cycle::1     22803773     16.08%     76.15% # Number of insts issued each cycle
system.switch_cpus1.iq.issued_per_cycle::2     12636431      8.91%     85.07% # Number of insts issued each cycle
system.switch_cpus1.iq.issued_per_cycle::3      8146550      5.75%     90.81% # Number of insts issued each cycle
system.switch_cpus1.iq.issued_per_cycle::4      7471829      5.27%     96.08% # Number of insts issued each cycle
system.switch_cpus1.iq.issued_per_cycle::5      2978571      2.10%     98.18% # Number of insts issued each cycle
system.switch_cpus1.iq.issued_per_cycle::6      1809810      1.28%     99.46% # Number of insts issued each cycle
system.switch_cpus1.iq.issued_per_cycle::7       517206      0.36%     99.82% # Number of insts issued each cycle
system.switch_cpus1.iq.issued_per_cycle::8       250284      0.18%    100.00% # Number of insts issued each cycle
system.switch_cpus1.iq.issued_per_cycle::overflows            0      0.00%    100.00% # Number of insts issued each cycle
system.switch_cpus1.iq.issued_per_cycle::min_value            0                       # Number of insts issued each cycle
system.switch_cpus1.iq.issued_per_cycle::max_value            8                       # Number of insts issued each cycle
system.switch_cpus1.iq.issued_per_cycle::total    141788857                       # Number of insts issued each cycle
system.switch_cpus1.iq.fu_full::No_OpClass            0      0.00%      0.00% # attempts to use FU when none available
system.switch_cpus1.iq.fu_full::IntAlu          64273     22.73%     22.73% # attempts to use FU when none available
system.switch_cpus1.iq.fu_full::IntMult             0      0.00%     22.73% # attempts to use FU when none available
system.switch_cpus1.iq.fu_full::IntDiv              0      0.00%     22.73% # attempts to use FU when none available
system.switch_cpus1.iq.fu_full::FloatAdd            0      0.00%     22.73% # attempts to use FU when none available
system.switch_cpus1.iq.fu_full::FloatCmp            0      0.00%     22.73% # attempts to use FU when none available
system.switch_cpus1.iq.fu_full::FloatCvt            0      0.00%     22.73% # attempts to use FU when none available
system.switch_cpus1.iq.fu_full::FloatMult            0      0.00%     22.73% # attempts to use FU when none available
system.switch_cpus1.iq.fu_full::FloatDiv            0      0.00%     22.73% # attempts to use FU when none available
system.switch_cpus1.iq.fu_full::FloatSqrt            0      0.00%     22.73% # attempts to use FU when none available
system.switch_cpus1.iq.fu_full::SimdAdd             0      0.00%     22.73% # attempts to use FU when none available
system.switch_cpus1.iq.fu_full::SimdAddAcc            0      0.00%     22.73% # attempts to use FU when none available
system.switch_cpus1.iq.fu_full::SimdAlu             0      0.00%     22.73% # attempts to use FU when none available
system.switch_cpus1.iq.fu_full::SimdCmp             0      0.00%     22.73% # attempts to use FU when none available
system.switch_cpus1.iq.fu_full::SimdCvt             0      0.00%     22.73% # attempts to use FU when none available
system.switch_cpus1.iq.fu_full::SimdMisc            0      0.00%     22.73% # attempts to use FU when none available
system.switch_cpus1.iq.fu_full::SimdMult            0      0.00%     22.73% # attempts to use FU when none available
system.switch_cpus1.iq.fu_full::SimdMultAcc            0      0.00%     22.73% # attempts to use FU when none available
system.switch_cpus1.iq.fu_full::SimdShift            0      0.00%     22.73% # attempts to use FU when none available
system.switch_cpus1.iq.fu_full::SimdShiftAcc            0      0.00%     22.73% # attempts to use FU when none available
system.switch_cpus1.iq.fu_full::SimdSqrt            0      0.00%     22.73% # attempts to use FU when none available
system.switch_cpus1.iq.fu_full::SimdFloatAdd            0      0.00%     22.73% # attempts to use FU when none available
system.switch_cpus1.iq.fu_full::SimdFloatAlu            0      0.00%     22.73% # attempts to use FU when none available
system.switch_cpus1.iq.fu_full::SimdFloatCmp            0      0.00%     22.73% # attempts to use FU when none available
system.switch_cpus1.iq.fu_full::SimdFloatCvt            0      0.00%     22.73% # attempts to use FU when none available
system.switch_cpus1.iq.fu_full::SimdFloatDiv            0      0.00%     22.73% # attempts to use FU when none available
system.switch_cpus1.iq.fu_full::SimdFloatMisc            0      0.00%     22.73% # attempts to use FU when none available
system.switch_cpus1.iq.fu_full::SimdFloatMult            0      0.00%     22.73% # attempts to use FU when none available
system.switch_cpus1.iq.fu_full::SimdFloatMultAcc            0      0.00%     22.73% # attempts to use FU when none available
system.switch_cpus1.iq.fu_full::SimdFloatSqrt            0      0.00%     22.73% # attempts to use FU when none available
system.switch_cpus1.iq.fu_full::MemRead         94426     33.39%     56.12% # attempts to use FU when none available
system.switch_cpus1.iq.fu_full::MemWrite       124105     43.88%    100.00% # attempts to use FU when none available
system.switch_cpus1.iq.fu_full::IprAccess            0      0.00%    100.00% # attempts to use FU when none available
system.switch_cpus1.iq.fu_full::InstPrefetch            0      0.00%    100.00% # attempts to use FU when none available
system.switch_cpus1.iq.FU_type_0::No_OpClass            0      0.00%      0.00% # Type of FU issued
system.switch_cpus1.iq.FU_type_0::IntAlu    112313797     83.96%     83.96% # Type of FU issued
system.switch_cpus1.iq.FU_type_0::IntMult      2039817      1.52%     85.48% # Type of FU issued
system.switch_cpus1.iq.FU_type_0::IntDiv            0      0.00%     85.48% # Type of FU issued
system.switch_cpus1.iq.FU_type_0::FloatAdd            0      0.00%     85.48% # Type of FU issued
system.switch_cpus1.iq.FU_type_0::FloatCmp            0      0.00%     85.48% # Type of FU issued
system.switch_cpus1.iq.FU_type_0::FloatCvt            0      0.00%     85.48% # Type of FU issued
system.switch_cpus1.iq.FU_type_0::FloatMult            0      0.00%     85.48% # Type of FU issued
system.switch_cpus1.iq.FU_type_0::FloatDiv            0      0.00%     85.48% # Type of FU issued
system.switch_cpus1.iq.FU_type_0::FloatSqrt            0      0.00%     85.48% # Type of FU issued
system.switch_cpus1.iq.FU_type_0::SimdAdd            0      0.00%     85.48% # Type of FU issued
system.switch_cpus1.iq.FU_type_0::SimdAddAcc            0      0.00%     85.48% # Type of FU issued
system.switch_cpus1.iq.FU_type_0::SimdAlu            0      0.00%     85.48% # Type of FU issued
system.switch_cpus1.iq.FU_type_0::SimdCmp            0      0.00%     85.48% # Type of FU issued
system.switch_cpus1.iq.FU_type_0::SimdCvt            0      0.00%     85.48% # Type of FU issued
system.switch_cpus1.iq.FU_type_0::SimdMisc            0      0.00%     85.48% # Type of FU issued
system.switch_cpus1.iq.FU_type_0::SimdMult            0      0.00%     85.48% # Type of FU issued
system.switch_cpus1.iq.FU_type_0::SimdMultAcc            0      0.00%     85.48% # Type of FU issued
system.switch_cpus1.iq.FU_type_0::SimdShift            0      0.00%     85.48% # Type of FU issued
system.switch_cpus1.iq.FU_type_0::SimdShiftAcc            0      0.00%     85.48% # Type of FU issued
system.switch_cpus1.iq.FU_type_0::SimdSqrt            0      0.00%     85.48% # Type of FU issued
system.switch_cpus1.iq.FU_type_0::SimdFloatAdd            0      0.00%     85.48% # Type of FU issued
system.switch_cpus1.iq.FU_type_0::SimdFloatAlu            0      0.00%     85.48% # Type of FU issued
system.switch_cpus1.iq.FU_type_0::SimdFloatCmp            0      0.00%     85.48% # Type of FU issued
system.switch_cpus1.iq.FU_type_0::SimdFloatCvt            0      0.00%     85.48% # Type of FU issued
system.switch_cpus1.iq.FU_type_0::SimdFloatDiv            0      0.00%     85.48% # Type of FU issued
system.switch_cpus1.iq.FU_type_0::SimdFloatMisc        16361      0.01%     85.49% # Type of FU issued
system.switch_cpus1.iq.FU_type_0::SimdFloatMult            0      0.00%     85.49% # Type of FU issued
system.switch_cpus1.iq.FU_type_0::SimdFloatMultAcc            0      0.00%     85.49% # Type of FU issued
system.switch_cpus1.iq.FU_type_0::SimdFloatSqrt            0      0.00%     85.49% # Type of FU issued
system.switch_cpus1.iq.FU_type_0::MemRead     12201674      9.12%     94.61% # Type of FU issued
system.switch_cpus1.iq.FU_type_0::MemWrite      7206381      5.39%    100.00% # Type of FU issued
system.switch_cpus1.iq.FU_type_0::IprAccess            0      0.00%    100.00% # Type of FU issued
system.switch_cpus1.iq.FU_type_0::InstPrefetch            0      0.00%    100.00% # Type of FU issued
system.switch_cpus1.iq.FU_type_0::total     133778030                       # Type of FU issued
system.switch_cpus1.iq.rate                  0.925402                       # Inst issue rate
system.switch_cpus1.iq.fu_busy_cnt             282804                       # FU busy when requested
system.switch_cpus1.iq.fu_busy_rate          0.002114                       # FU busy rate (busy events/executed inst)
system.switch_cpus1.iq.int_inst_queue_reads    409654547                       # Number of integer instruction queue reads
system.switch_cpus1.iq.int_inst_queue_writes    163513406                       # Number of integer instruction queue writes
system.switch_cpus1.iq.int_inst_queue_wakeup_accesses    131221371                       # Number of integer instruction queue wakeup accesses
system.switch_cpus1.iq.fp_inst_queue_reads            0                       # Number of floating instruction queue reads
system.switch_cpus1.iq.fp_inst_queue_writes            0                       # Number of floating instruction queue writes
system.switch_cpus1.iq.fp_inst_queue_wakeup_accesses            0                       # Number of floating instruction queue wakeup accesses
system.switch_cpus1.iq.int_alu_accesses     134060834                       # Number of integer alu accesses
system.switch_cpus1.iq.fp_alu_accesses              0                       # Number of floating point alu accesses
system.switch_cpus1.iew.lsq.thread0.forwLoads       327113                       # Number of loads that had data forwarded from stores
system.switch_cpus1.iew.lsq.thread0.invAddrLoads            0                       # Number of loads ignored due to an invalid address
system.switch_cpus1.iew.lsq.thread0.squashedLoads      2917258                       # Number of loads squashed
system.switch_cpus1.iew.lsq.thread0.ignoredResponses          152                       # Number of memory responses ignored because the instruction is squashed
system.switch_cpus1.iew.lsq.thread0.memOrderViolation          344                       # Number of memory ordering violations
system.switch_cpus1.iew.lsq.thread0.squashedStores       173948                       # Number of stores squashed
system.switch_cpus1.iew.lsq.thread0.invAddrSwpfs            0                       # Number of software prefetches ignored due to an invalid address
system.switch_cpus1.iew.lsq.thread0.blockedLoads            0                       # Number of blocked loads due to partial load-store forwarding
system.switch_cpus1.iew.lsq.thread0.rescheduledLoads            0                       # Number of loads that were rescheduled
system.switch_cpus1.iew.lsq.thread0.cacheBlocked          130                       # Number of times an access to memory failed due to the cache being blocked
system.switch_cpus1.iew.iewIdleCycles               0                       # Number of cycles IEW is idle
system.switch_cpus1.iew.iewSquashCycles       3872032                       # Number of cycles IEW is squashing
system.switch_cpus1.iew.iewBlockCycles         812863                       # Number of cycles IEW is blocking
system.switch_cpus1.iew.iewUnblockCycles       109605                       # Number of cycles IEW is unblocking
system.switch_cpus1.iew.iewDispatchedInsts    142969048                       # Number of instructions dispatched to IQ
system.switch_cpus1.iew.iewDispSquashedInsts      1366675                       # Number of squashed instructions skipped by dispatch
system.switch_cpus1.iew.iewDispLoadInsts     13977070                       # Number of dispatched load instructions
system.switch_cpus1.iew.iewDispStoreInsts      7262885                       # Number of dispatched store instructions
system.switch_cpus1.iew.iewDispNonSpecInsts        22502                       # Number of dispatched non-speculative instructions
system.switch_cpus1.iew.iewIQFullEvents         83826                       # Number of times the IQ has become full, causing a stall
system.switch_cpus1.iew.iewLSQFullEvents            0                       # Number of times the LSQ has become full, causing a stall
system.switch_cpus1.iew.memOrderViolationEvents          344                       # Number of memory order violations
system.switch_cpus1.iew.predictedTakenIncorrect      1172605                       # Number of branches that were predicted taken incorrectly
system.switch_cpus1.iew.predictedNotTakenIncorrect      1125513                       # Number of branches that were predicted not taken incorrectly
system.switch_cpus1.iew.branchMispredicts      2298118                       # Number of branch mispredicts detected at execute
system.switch_cpus1.iew.iewExecutedInsts    131968642                       # Number of executed instructions
system.switch_cpus1.iew.iewExecLoadInsts     12035498                       # Number of load instructions executed
system.switch_cpus1.iew.iewExecSquashedInsts      1809386                       # Number of squashed instructions skipped in execute
system.switch_cpus1.iew.exec_swp                    0                       # number of swp insts executed
system.switch_cpus1.iew.exec_nop                    0                       # number of nop insts executed
system.switch_cpus1.iew.exec_refs            19240461                       # number of memory reference insts executed
system.switch_cpus1.iew.exec_branches        18494726                       # Number of branches executed
system.switch_cpus1.iew.exec_stores           7204963                       # Number of stores executed
system.switch_cpus1.iew.exec_rate            0.912886                       # Inst execution rate
system.switch_cpus1.iew.wb_sent             131221625                       # cumulative count of insts sent to commit
system.switch_cpus1.iew.wb_count            131221371                       # cumulative count of insts written-back
system.switch_cpus1.iew.wb_producers         76866386                       # num instructions producing a value
system.switch_cpus1.iew.wb_consumers        208794057                       # num instructions consuming a value
system.switch_cpus1.iew.wb_penalized                0                       # number of instrctions required to write to 'other' IQ
system.switch_cpus1.iew.wb_rate              0.907717                       # insts written-back per cycle
system.switch_cpus1.iew.wb_fanout            0.368145                       # average fanout of values written-back
system.switch_cpus1.iew.wb_penalized_rate            0                       # fraction of instructions written-back that wrote to 'other' IQ
system.switch_cpus1.commit.commitCommittedInsts     98154861                       # The number of committed instructions
system.switch_cpus1.commit.commitCommittedOps    120636569                       # The number of committed instructions
system.switch_cpus1.commit.commitSquashedInsts     22341227                       # The number of squashed insts skipped by commit
system.switch_cpus1.commit.commitNonSpecStalls        32720                       # The number of times commit has been forced to stall to communicate backwards
system.switch_cpus1.commit.branchMispredicts      2026971                       # The number of times a branch was mispredicted
system.switch_cpus1.commit.committed_per_cycle::samples    137916825                       # Number of insts commited each cycle
system.switch_cpus1.commit.committed_per_cycle::mean     0.874705                       # Number of insts commited each cycle
system.switch_cpus1.commit.committed_per_cycle::stdev     1.682224                       # Number of insts commited each cycle
system.switch_cpus1.commit.committed_per_cycle::underflows            0      0.00%      0.00% # Number of insts commited each cycle
system.switch_cpus1.commit.committed_per_cycle::0     89016459     64.54%     64.54% # Number of insts commited each cycle
system.switch_cpus1.commit.committed_per_cycle::1     23510110     17.05%     81.59% # Number of insts commited each cycle
system.switch_cpus1.commit.committed_per_cycle::2      9236269      6.70%     88.29% # Number of insts commited each cycle
system.switch_cpus1.commit.committed_per_cycle::3      4750315      3.44%     91.73% # Number of insts commited each cycle
system.switch_cpus1.commit.committed_per_cycle::4      4146324      3.01%     94.74% # Number of insts commited each cycle
system.switch_cpus1.commit.committed_per_cycle::5      1992518      1.44%     96.18% # Number of insts commited each cycle
system.switch_cpus1.commit.committed_per_cycle::6      1725485      1.25%     97.43% # Number of insts commited each cycle
system.switch_cpus1.commit.committed_per_cycle::7       812580      0.59%     98.02% # Number of insts commited each cycle
system.switch_cpus1.commit.committed_per_cycle::8      2726765      1.98%    100.00% # Number of insts commited each cycle
system.switch_cpus1.commit.committed_per_cycle::overflows            0      0.00%    100.00% # Number of insts commited each cycle
system.switch_cpus1.commit.committed_per_cycle::min_value            0                       # Number of insts commited each cycle
system.switch_cpus1.commit.committed_per_cycle::max_value            8                       # Number of insts commited each cycle
system.switch_cpus1.commit.committed_per_cycle::total    137916825                       # Number of insts commited each cycle
system.switch_cpus1.commit.committedInsts     98154861                       # Number of instructions committed
system.switch_cpus1.commit.committedOps     120636569                       # Number of ops (including micro ops) committed
system.switch_cpus1.commit.swp_count                0                       # Number of s/w prefetches committed
[...]
system.cpu2.icache.ReadReq_miss_latency::total      5043852                       # number of ReadReq miss cycles
system.cpu2.icache.demand_miss_latency::switch_cpus2.inst      5043852                       # number of demand (read+write) miss cycles
system.cpu2.icache.demand_miss_latency::total      5043852                       # number of demand (read+write) miss cycles
system.cpu2.icache.overall_miss_latency::switch_cpus2.inst      5043852                       # number of overall miss cycles
system.cpu2.icache.overall_miss_latency::total      5043852                       # number of overall miss cycles
system.cpu2.icache.ReadReq_accesses::switch_cpus2.inst     12635226                       # number of ReadReq accesses(hits+misses)
system.cpu2.icache.ReadReq_accesses::total     12635226                       # number of ReadReq accesses(hits+misses)
system.cpu2.icache.demand_accesses::switch_cpus2.inst     12635226                       # number of demand (read+write) accesses
system.cpu2.icache.demand_accesses::total     12635226                       # number of demand (read+write) accesses
system.cpu2.icache.overall_accesses::switch_cpus2.inst     12635226                       # number of overall (read+write) accesses
system.cpu2.icache.overall_accesses::total     12635226                       # number of overall (read+write) accesses
system.cpu2.icache.ReadReq_miss_rate::switch_cpus2.inst     0.000001                       # miss rate for ReadReq accesses
system.cpu2.icache.ReadReq_miss_rate::total     0.000001                       # miss rate for ReadReq accesses
system.cpu2.icache.demand_miss_rate::switch_cpus2.inst     0.000001                       # miss rate for demand accesses
system.cpu2.icache.demand_miss_rate::total     0.000001                       # miss rate for demand accesses
system.cpu2.icache.overall_miss_rate::switch_cpus2.inst     0.000001                       # miss rate for overall accesses
system.cpu2.icache.overall_miss_rate::total     0.000001                       # miss rate for overall accesses
system.cpu2.icache.ReadReq_avg_miss_latency::switch_cpus2.inst 296697.176471                       # average ReadReq miss latency
system.cpu2.icache.ReadReq_avg_miss_latency::total 296697.176471                       # average ReadReq miss latency
system.cpu2.icache.demand_avg_miss_latency::switch_cpus2.inst 296697.176471                       # average overall miss latency
system.cpu2.icache.demand_avg_miss_latency::total 296697.176471                       # average overall miss latency
system.cpu2.icache.overall_avg_miss_latency::switch_cpus2.inst 296697.176471                       # average overall miss latency
system.cpu2.icache.overall_avg_miss_latency::total 296697.176471                       # average overall miss latency
system.cpu2.icache.blocked_cycles::no_mshrs            0                       # number of cycles access was blocked
system.cpu2.icache.blocked_cycles::no_targets            0                       # number of cycles access was blocked
system.cpu2.icache.blocked::no_mshrs                0                       # number of cycles access was blocked
system.cpu2.icache.blocked::no_targets              0                       # number of cycles access was blocked
system.cpu2.icache.avg_blocked_cycles::no_mshrs          nan                       # average number of cycles each access was blocked
system.cpu2.icache.avg_blocked_cycles::no_targets          nan                       # average number of cycles each access was blocked
system.cpu2.icache.fast_writes                      0                       # number of fast writes performed
system.cpu2.icache.cache_copies                     0                       # number of cache copies performed
system.cpu2.icache.ReadReq_mshr_hits::switch_cpus2.inst            1                       # number of ReadReq MSHR hits
system.cpu2.icache.ReadReq_mshr_hits::total            1                       # number of ReadReq MSHR hits
system.cpu2.icache.demand_mshr_hits::switch_cpus2.inst            1                       # number of demand (read+write) MSHR hits
system.cpu2.icache.demand_mshr_hits::total            1                       # number of demand (read+write) MSHR hits
system.cpu2.icache.overall_mshr_hits::switch_cpus2.inst            1                       # number of overall MSHR hits
system.cpu2.icache.overall_mshr_hits::total            1                       # number of overall MSHR hits
system.cpu2.icache.ReadReq_mshr_misses::switch_cpus2.inst           16                       # number of ReadReq MSHR misses
system.cpu2.icache.ReadReq_mshr_misses::total           16                       # number of ReadReq MSHR misses
system.cpu2.icache.demand_mshr_misses::switch_cpus2.inst           16                       # number of demand (read+write) MSHR misses
system.cpu2.icache.demand_mshr_misses::total           16                       # number of demand (read+write) MSHR misses
system.cpu2.icache.overall_mshr_misses::switch_cpus2.inst           16                       # number of overall MSHR misses
system.cpu2.icache.overall_mshr_misses::total           16                       # number of overall MSHR misses
system.cpu2.icache.ReadReq_mshr_miss_latency::switch_cpus2.inst      4708027                       # number of ReadReq MSHR miss cycles
system.cpu2.icache.ReadReq_mshr_miss_latency::total      4708027                       # number of ReadReq MSHR miss cycles
system.cpu2.icache.demand_mshr_miss_latency::switch_cpus2.inst      4708027                       # number of demand (read+write) MSHR miss cycles
system.cpu2.icache.demand_mshr_miss_latency::total      4708027                       # number of demand (read+write) MSHR miss cycles
system.cpu2.icache.overall_mshr_miss_latency::switch_cpus2.inst      4708027                       # number of overall MSHR miss cycles
system.cpu2.icache.overall_mshr_miss_latency::total      4708027                       # number of overall MSHR miss cycles
system.cpu2.icache.ReadReq_mshr_miss_rate::switch_cpus2.inst     0.000001                       # mshr miss rate for ReadReq accesses
system.cpu2.icache.ReadReq_mshr_miss_rate::total     0.000001                       # mshr miss rate for ReadReq accesses
system.cpu2.icache.demand_mshr_miss_rate::switch_cpus2.inst     0.000001                       # mshr miss rate for demand accesses
system.cpu2.icache.demand_mshr_miss_rate::total     0.000001                       # mshr miss rate for demand accesses
system.cpu2.icache.overall_mshr_miss_rate::switch_cpus2.inst     0.000001                       # mshr miss rate for overall accesses
system.cpu2.icache.overall_mshr_miss_rate::total     0.000001                       # mshr miss rate for overall accesses
system.cpu2.icache.ReadReq_avg_mshr_miss_latency::switch_cpus2.inst 294251.687500                       # average ReadReq mshr miss latency
system.cpu2.icache.ReadReq_avg_mshr_miss_latency::total 294251.687500                       # average ReadReq mshr miss latency
system.cpu2.icache.demand_avg_mshr_miss_latency::switch_cpus2.inst 294251.687500                       # average overall mshr miss latency
system.cpu2.icache.demand_avg_mshr_miss_latency::total 294251.687500                       # average overall mshr miss latency
system.cpu2.icache.overall_avg_mshr_miss_latency::switch_cpus2.inst 294251.687500                       # average overall mshr miss latency
system.cpu2.icache.overall_avg_mshr_miss_latency::total 294251.687500                       # average overall mshr miss latency
system.cpu2.icache.no_allocate_misses               0                       # Number of misses that were no-allocate
system.cpu2.dcache.replacements                 33816                       # number of replacements
system.cpu2.dcache.tagsinuse                      256                       # Cycle average of tags in use
system.cpu2.dcache.total_refs               163752095                       # Total number of references to valid blocks.
system.cpu2.dcache.sampled_refs                 34072                       # Sample count of references to valid blocks.
system.cpu2.dcache.avg_refs               4806.060548                       # Average number of references to valid blocks.
system.cpu2.dcache.warmup_cycle                     0                       # Cycle when the warmup percentage was hit.
system.cpu2.dcache.occ_blocks::switch_cpus2.data   231.036197                       # Average occupied blocks per requestor
system.cpu2.dcache.occ_blocks::cpu2.data    24.963803                       # Average occupied blocks per requestor
system.cpu2.dcache.occ_percent::switch_cpus2.data     0.902485                       # Average percentage of cache occupancy
system.cpu2.dcache.occ_percent::cpu2.data     0.097515                       # Average percentage of cache occupancy
system.cpu2.dcache.occ_percent::total               1                       # Average percentage of cache occupancy
system.cpu2.dcache.ReadReq_hits::switch_cpus2.data      9307733                       # number of ReadReq hits
system.cpu2.dcache.ReadReq_hits::total        9307733                       # number of ReadReq hits
system.cpu2.dcache.WriteReq_hits::switch_cpus2.data      7268509                       # number of WriteReq hits
system.cpu2.dcache.WriteReq_hits::total       7268509                       # number of WriteReq hits
system.cpu2.dcache.LoadLockedReq_hits::switch_cpus2.data        17591                       # number of LoadLockedReq hits
system.cpu2.dcache.LoadLockedReq_hits::total        17591                       # number of LoadLockedReq hits
system.cpu2.dcache.StoreCondReq_hits::switch_cpus2.data        17560                       # number of StoreCondReq hits
system.cpu2.dcache.StoreCondReq_hits::total        17560                       # number of StoreCondReq hits
system.cpu2.dcache.demand_hits::switch_cpus2.data     16576242                       # number of demand (read+write) hits
system.cpu2.dcache.demand_hits::total        16576242                       # number of demand (read+write) hits
system.cpu2.dcache.overall_hits::switch_cpus2.data     16576242                       # number of overall hits
system.cpu2.dcache.overall_hits::total       16576242                       # number of overall hits
system.cpu2.dcache.ReadReq_misses::switch_cpus2.data        86539                       # number of ReadReq misses
system.cpu2.dcache.ReadReq_misses::total        86539                       # number of ReadReq misses
system.cpu2.dcache.demand_misses::switch_cpus2.data        86539                       # number of demand (read+write) misses
system.cpu2.dcache.demand_misses::total         86539                       # number of demand (read+write) misses
system.cpu2.dcache.overall_misses::switch_cpus2.data        86539                       # number of overall misses
system.cpu2.dcache.overall_misses::total        86539                       # number of overall misses
system.cpu2.dcache.ReadReq_miss_latency::switch_cpus2.data   8409417883                       # number of ReadReq miss cycles
system.cpu2.dcache.ReadReq_miss_latency::total   8409417883                       # number of ReadReq miss cycles
system.cpu2.dcache.demand_miss_latency::switch_cpus2.data   8409417883                       # number of demand (read+write) miss cycles
system.cpu2.dcache.demand_miss_latency::total   8409417883                       # number of demand (read+write) miss cycles
system.cpu2.dcache.overall_miss_latency::switch_cpus2.data   8409417883                       # number of overall miss cycles
system.cpu2.dcache.overall_miss_latency::total   8409417883                       # number of overall miss cycles
system.cpu2.dcache.ReadReq_accesses::switch_cpus2.data      9394272                       # number of ReadReq accesses(hits+misses)
system.cpu2.dcache.ReadReq_accesses::total      9394272                       # number of ReadReq accesses(hits+misses)
system.cpu2.dcache.WriteReq_accesses::switch_cpus2.data      7268509                       # number of WriteReq accesses(hits+misses)
system.cpu2.dcache.WriteReq_accesses::total      7268509                       # number of WriteReq accesses(hits+misses)
system.cpu2.dcache.LoadLockedReq_accesses::switch_cpus2.data        17591                       # number of LoadLockedReq accesses(hits+misses)
system.cpu2.dcache.LoadLockedReq_accesses::total        17591                       # number of LoadLockedReq accesses(hits+misses)
system.cpu2.dcache.StoreCondReq_accesses::switch_cpus2.data        17560                       # number of StoreCondReq accesses(hits+misses)
system.cpu2.dcache.StoreCondReq_accesses::total        17560                       # number of StoreCondReq accesses(hits+misses)
system.cpu2.dcache.demand_accesses::switch_cpus2.data     16662781                       # number of demand (read+write) accesses
system.cpu2.dcache.demand_accesses::total     16662781                       # number of demand (read+write) accesses
system.cpu2.dcache.overall_accesses::switch_cpus2.data     16662781                       # number of overall (read+write) accesses
system.cpu2.dcache.overall_accesses::total     16662781                       # number of overall (read+write) accesses
system.cpu2.dcache.ReadReq_miss_rate::switch_cpus2.data     0.009212                       # miss rate for ReadReq accesses
system.cpu2.dcache.ReadReq_miss_rate::total     0.009212                       # miss rate for ReadReq accesses
system.cpu2.dcache.demand_miss_rate::switch_cpus2.data     0.005194                       # miss rate for demand accesses
system.cpu2.dcache.demand_miss_rate::total     0.005194                       # miss rate for demand accesses
system.cpu2.dcache.overall_miss_rate::switch_cpus2.data     0.005194                       # miss rate for overall accesses
system.cpu2.dcache.overall_miss_rate::total     0.005194                       # miss rate for overall accesses
system.cpu2.dcache.ReadReq_avg_miss_latency::switch_cpus2.data 97174.890893                       # average ReadReq miss latency
system.cpu2.dcache.ReadReq_avg_miss_latency::total 97174.890893                       # average ReadReq miss latency
system.cpu2.dcache.demand_avg_miss_latency::switch_cpus2.data 97174.890893                       # average overall miss latency
system.cpu2.dcache.demand_avg_miss_latency::total 97174.890893                       # average overall miss latency
system.cpu2.dcache.overall_avg_miss_latency::switch_cpus2.data 97174.890893                       # average overall miss latency
system.cpu2.dcache.overall_avg_miss_latency::total 97174.890893                       # average overall miss latency
system.cpu2.dcache.blocked_cycles::no_mshrs            0                       # number of cycles access was blocked
system.cpu2.dcache.blocked_cycles::no_targets            0                       # number of cycles access was blocked
system.cpu2.dcache.blocked::no_mshrs                0                       # number of cycles access was blocked
system.cpu2.dcache.blocked::no_targets              0                       # number of cycles access was blocked
system.cpu2.dcache.avg_blocked_cycles::no_mshrs          nan                       # average number of cycles each access was blocked
system.cpu2.dcache.avg_blocked_cycles::no_targets          nan                       # average number of cycles each access was blocked
system.cpu2.dcache.fast_writes                      0                       # number of fast writes performed
system.cpu2.dcache.cache_copies                     0                       # number of cache copies performed
system.cpu2.dcache.writebacks::writebacks         9939                       # number of writebacks
system.cpu2.dcache.writebacks::total             9939                       # number of writebacks
system.cpu2.dcache.ReadReq_mshr_hits::switch_cpus2.data        52723                       # number of ReadReq MSHR hits
system.cpu2.dcache.ReadReq_mshr_hits::total        52723                       # number of ReadReq MSHR hits
system.cpu2.dcache.demand_mshr_hits::switch_cpus2.data        52723                       # number of demand (read+write) MSHR hits
system.cpu2.dcache.demand_mshr_hits::total        52723                       # number of demand (read+write) MSHR hits
system.cpu2.dcache.overall_mshr_hits::switch_cpus2.data        52723                       # number of overall MSHR hits
system.cpu2.dcache.overall_mshr_hits::total        52723                       # number of overall MSHR hits
system.cpu2.dcache.ReadReq_mshr_misses::switch_cpus2.data        33816                       # number of ReadReq MSHR misses
system.cpu2.dcache.ReadReq_mshr_misses::total        33816                       # number of ReadReq MSHR misses
system.cpu2.dcache.demand_mshr_misses::switch_cpus2.data        33816                       # number of demand (read+write) MSHR misses
system.cpu2.dcache.demand_mshr_misses::total        33816                       # number of demand (read+write) MSHR misses
system.cpu2.dcache.overall_mshr_misses::switch_cpus2.data        33816                       # number of overall MSHR misses
system.cpu2.dcache.overall_mshr_misses::total        33816                       # number of overall MSHR misses
system.cpu2.dcache.ReadReq_mshr_miss_latency::switch_cpus2.data   3023284473                       # number of ReadReq MSHR miss cycles
system.cpu2.dcache.ReadReq_mshr_miss_latency::total   3023284473                       # number of ReadReq MSHR miss cycles
system.cpu2.dcache.demand_mshr_miss_latency::switch_cpus2.data   3023284473                       # number of demand (read+write) MSHR miss cycles
system.cpu2.dcache.demand_mshr_miss_latency::total   3023284473                       # number of demand (read+write) MSHR miss cycles
system.cpu2.dcache.overall_mshr_miss_latency::switch_cpus2.data   3023284473                       # number of overall MSHR miss cycles
system.cpu2.dcache.overall_mshr_miss_latency::total   3023284473                       # number of overall MSHR miss cycles
system.cpu2.dcache.ReadReq_mshr_miss_rate::switch_cpus2.data     0.003600                       # mshr miss rate for ReadReq accesses
system.cpu2.dcache.ReadReq_mshr_miss_rate::total     0.003600                       # mshr miss rate for ReadReq accesses
system.cpu2.dcache.demand_mshr_miss_rate::switch_cpus2.data     0.002029                       # mshr miss rate for demand accesses
system.cpu2.dcache.demand_mshr_miss_rate::total     0.002029                       # mshr miss rate for demand accesses
system.cpu2.dcache.overall_mshr_miss_rate::switch_cpus2.data     0.002029                       # mshr miss rate for overall accesses
system.cpu2.dcache.overall_mshr_miss_rate::total     0.002029                       # mshr miss rate for overall accesses
system.cpu2.dcache.ReadReq_avg_mshr_miss_latency::switch_cpus2.data 89403.964780                       # average ReadReq mshr miss latency
system.cpu2.dcache.ReadReq_avg_mshr_miss_latency::total 89403.964780                       # average ReadReq mshr miss latency
system.cpu2.dcache.demand_avg_mshr_miss_latency::switch_cpus2.data 89403.964780                       # average overall mshr miss latency
system.cpu2.dcache.demand_avg_mshr_miss_latency::total 89403.964780                       # average overall mshr miss latency
system.cpu2.dcache.overall_avg_mshr_miss_latency::switch_cpus2.data 89403.964780                       # average overall mshr miss latency
system.cpu2.dcache.overall_avg_mshr_miss_latency::total 89403.964780                       # average overall mshr miss latency
system.cpu2.dcache.no_allocate_misses               0                       # Number of misses that were no-allocate

---------- End Simulation Statistics   ----------
