
---------- Begin Simulation Statistics ----------
sim_seconds                                  0.117885                       # Number of seconds simulated
sim_ticks                                117884501382                       # Number of ticks simulated
final_tick                               687715794516                       # Number of ticks from beginning of simulation (restored from checkpoints and never reset)
sim_freq                                 1000000000000                       # Frequency of simulated ticks
host_inst_rate                                 194441                       # Simulator instruction rate (inst/s)
host_op_rate                                   250057                       # Simulator op (including micro ops) rate (op/s)
host_tick_rate                                6548517                       # Simulator tick rate (ticks/s)
host_mem_usage                               16912192                       # Number of bytes of host memory used
host_seconds                                 18001.71                       # Real time elapsed on the host
sim_insts                                  3500275128                       # Number of instructions simulated
sim_ops                                    4501461845                       # Number of ops (including micro ops) simulated
system.physmem.bytes_read::switch_cpus0.inst         1792                       # Number of bytes read from this memory
system.physmem.bytes_read::switch_cpus0.data      1655040                       # Number of bytes read from this memory
system.physmem.bytes_read::switch_cpus1.inst         1664                       # Number of bytes read from this memory
system.physmem.bytes_read::switch_cpus1.data      2840704                       # Number of bytes read from this memory
system.physmem.bytes_read::switch_cpus2.inst         1792                       # Number of bytes read from this memory
system.physmem.bytes_read::switch_cpus2.data       594304                       # Number of bytes read from this memory
system.physmem.bytes_read::total              5095296                       # Number of bytes read from this memory
system.physmem.bytes_inst_read::switch_cpus0.inst         1792                       # Number of instructions bytes read from this memory
system.physmem.bytes_inst_read::switch_cpus1.inst         1664                       # Number of instructions bytes read from this memory
system.physmem.bytes_inst_read::switch_cpus2.inst         1792                       # Number of instructions bytes read from this memory
system.physmem.bytes_inst_read::total            5248                       # Number of instructions bytes read from this memory
system.physmem.bytes_written::writebacks      1201920                       # Number of bytes written to this memory
system.physmem.bytes_written::total           1201920                       # Number of bytes written to this memory
system.physmem.num_reads::switch_cpus0.inst           14                       # Number of read requests responded to by this memory
system.physmem.num_reads::switch_cpus0.data        12930                       # Number of read requests responded to by this memory
system.physmem.num_reads::switch_cpus1.inst           13                       # Number of read requests responded to by this memory
system.physmem.num_reads::switch_cpus1.data        22193                       # Number of read requests responded to by this memory
system.physmem.num_reads::switch_cpus2.inst           14                       # Number of read requests responded to by this memory
system.physmem.num_reads::switch_cpus2.data         4643                       # Number of read requests responded to by this memory
system.physmem.num_reads::total                 39807                       # Number of read requests responded to by this memory
system.physmem.num_writes::writebacks            9390                       # Number of write requests responded to by this memory
system.physmem.num_writes::functional               0                       # Number of write requests responded to by this memory
system.physmem.num_writes::interrupt                0                       # Number of write requests responded to by this memory
system.physmem.num_writes::switch_cpus0.dtb.walker            0                       # Number of write requests responded to by this memory
system.physmem.num_writes::switch_cpus0.itb.walker            0                       # Number of write requests responded to by this memory
system.physmem.num_writes::switch_cpus0.inst            0                       # Number of write requests responded to by this memory
system.physmem.num_writes::switch_cpus0.data            0                       # Number of write requests responded to by this memory
system.physmem.num_writes::switch_cpus1.dtb.walker            0                       # Number of write requests responded to by this memory
system.physmem.num_writes::switch_cpus1.itb.walker            0                       # Number of write requests responded to by this memory
system.physmem.num_writes::switch_cpus1.inst            0                       # Number of write requests responded to by this memory
system.physmem.num_writes::switch_cpus1.data            0                       # Number of write requests responded to by this memory
system.physmem.num_writes::switch_cpus2.dtb.walker            0                       # Number of write requests responded to by this memory
system.physmem.num_writes::switch_cpus2.itb.walker            0                       # Number of write requests responded to by this memory
system.physmem.num_writes::switch_cpus2.inst            0                       # Number of write requests responded to by this memory
system.physmem.num_writes::switch_cpus2.data            0                       # Number of write requests responded to by this memory
system.physmem.num_writes::cpu0.dtb.walker            0                       # Number of write requests responded to by this memory
system.physmem.num_writes::cpu0.itb.walker            0                       # Number of write requests responded to by this memory
system.physmem.num_writes::cpu0.inst                0                       # Number of write requests responded to by this memory
system.physmem.num_writes::cpu0.data                0                       # Number of write requests responded to by this memory
system.physmem.num_writes::cpu1.dtb.walker            0                       # Number of write requests responded to by this memory
system.physmem.num_writes::cpu1.itb.walker            0                       # Number of write requests responded to by this memory
system.physmem.num_writes::cpu1.inst                0                       # Number of write requests responded to by this memory
system.physmem.num_writes::cpu1.data                0                       # Number of write requests responded to by this memory
system.physmem.num_writes::cpu2.dtb.walker            0                       # Number of write requests responded to by this memory
system.physmem.num_writes::cpu2.itb.walker            0                       # Number of write requests responded to by this memory
system.physmem.num_writes::cpu2.inst                0                       # Number of write requests responded to by this memory
system.physmem.num_writes::cpu2.data                0                       # Number of write requests responded to by this memory
system.physmem.num_writes::total                 9390                       # Number of write requests responded to by this memory
system.physmem.bw_read::switch_cpus0.inst        15201                       # Total read bandwidth from this memory (bytes/s)
system.physmem.bw_read::switch_cpus0.data     14039505                       # Total read bandwidth from this memory (bytes/s)
system.physmem.bw_read::switch_cpus1.inst        14116                       # Total read bandwidth from this memory (bytes/s)
system.physmem.bw_read::switch_cpus1.data     24097349                       # Total read bandwidth from this memory (bytes/s)
system.physmem.bw_read::switch_cpus2.inst        15201                       # Total read bandwidth from this memory (bytes/s)
system.physmem.bw_read::switch_cpus2.data      5041409                       # Total read bandwidth from this memory (bytes/s)
system.physmem.bw_read::total                43222781                       # Total read bandwidth from this memory (bytes/s)
system.physmem.bw_inst_read::switch_cpus0.inst        15201                       # Instruction read bandwidth from this memory (bytes/s)
system.physmem.bw_inst_read::switch_cpus1.inst        14116                       # Instruction read bandwidth from this memory (bytes/s)
system.physmem.bw_inst_read::switch_cpus2.inst        15201                       # Instruction read bandwidth from this memory (bytes/s)
system.physmem.bw_inst_read::total              44518                       # Instruction read bandwidth from this memory (bytes/s)
system.physmem.bw_write::writebacks          10195742                       # Write bandwidth from this memory (bytes/s)
system.physmem.bw_write::total               10195742                       # Write bandwidth from this memory (bytes/s)
system.physmem.bw_total::writebacks          10195742                       # Total bandwidth to/from this memory (bytes/s)
system.physmem.bw_total::switch_cpus0.inst        15201                       # Total bandwidth to/from this memory (bytes/s)
system.physmem.bw_total::switch_cpus0.data     14039505                       # Total bandwidth to/from this memory (bytes/s)
system.physmem.bw_total::switch_cpus1.inst        14116                       # Total bandwidth to/from this memory (bytes/s)
system.physmem.bw_total::switch_cpus1.data     24097349                       # Total bandwidth to/from this memory (bytes/s)
system.physmem.bw_total::switch_cpus2.inst        15201                       # Total bandwidth to/from this memory (bytes/s)
system.physmem.bw_total::switch_cpus2.data      5041409                       # Total bandwidth to/from this memory (bytes/s)
system.physmem.bw_total::total               53418523                       # Total bandwidth to/from this memory (bytes/s)
system.switch_cpus0.dtb.inst_hits                   0                       # ITB inst hits
system.switch_cpus0.dtb.inst_misses                 0                       # ITB inst misses
system.switch_cpus0.dtb.read_hits                   0                       # DTB read hits
system.switch_cpus0.dtb.read_misses                 0                       # DTB read misses
system.switch_cpus0.dtb.write_hits                  0                       # DTB write hits
system.switch_cpus0.dtb.write_misses                0                       # DTB write misses
system.switch_cpus0.dtb.flush_tlb                   0                       # Number of times complete TLB was flushed
system.switch_cpus0.dtb.flush_tlb_mva               0                       # Number of times TLB was flushed by MVA
system.switch_cpus0.dtb.flush_tlb_mva_asid            0                       # Number of times TLB was flushed by MVA & ASID
system.switch_cpus0.dtb.flush_tlb_asid              0                       # Number of times TLB was flushed by ASID
system.switch_cpus0.dtb.flush_entries               0                       # Number of entries that have been flushed from TLB
system.switch_cpus0.dtb.align_faults                0                       # Number of TLB faults due to alignment restrictions
system.switch_cpus0.dtb.prefetch_faults             0                       # Number of TLB faults due to prefetch
system.switch_cpus0.dtb.domain_faults               0                       # Number of TLB faults due to domain restrictions
system.switch_cpus0.dtb.perms_faults                0                       # Number of TLB faults due to permissions restrictions
system.switch_cpus0.dtb.read_accesses               0                       # DTB read accesses
system.switch_cpus0.dtb.write_accesses              0                       # DTB write accesses
system.switch_cpus0.dtb.inst_accesses               0                       # ITB inst accesses
system.switch_cpus0.dtb.hits                        0                       # DTB hits
system.switch_cpus0.dtb.misses                      0                       # DTB misses
system.switch_cpus0.dtb.accesses                    0                       # DTB accesses
system.switch_cpus0.itb.inst_hits                   0                       # ITB inst hits
system.switch_cpus0.itb.inst_misses                 0                       # ITB inst misses
system.switch_cpus0.itb.read_hits                   0                       # DTB read hits
system.switch_cpus0.itb.read_misses                 0                       # DTB read misses
system.switch_cpus0.itb.write_hits                  0                       # DTB write hits
system.switch_cpus0.itb.write_misses                0                       # DTB write misses
system.switch_cpus0.itb.flush_tlb                   0                       # Number of times complete TLB was flushed
system.switch_cpus0.itb.flush_tlb_mva               0                       # Number of times TLB was flushed by MVA
system.switch_cpus0.itb.flush_tlb_mva_asid            0                       # Number of times TLB was flushed by MVA & ASID
system.switch_cpus0.itb.flush_tlb_asid              0                       # Number of times TLB was flushed by ASID
system.switch_cpus0.itb.flush_entries               0                       # Number of entries that have been flushed from TLB
system.switch_cpus0.itb.align_faults                0                       # Number of TLB faults due to alignment restrictions
system.switch_cpus0.itb.prefetch_faults             0                       # Number of TLB faults due to prefetch
system.switch_cpus0.itb.domain_faults               0                       # Number of TLB faults due to domain restrictions
system.switch_cpus0.itb.perms_faults                0                       # Number of TLB faults due to permissions restrictions
system.switch_cpus0.itb.read_accesses               0                       # DTB read accesses
system.switch_cpus0.itb.write_accesses              0                       # DTB write accesses
system.switch_cpus0.itb.inst_accesses               0                       # ITB inst accesses
system.switch_cpus0.itb.hits                        0                       # DTB hits
system.switch_cpus0.itb.misses                      0                       # DTB misses
system.switch_cpus0.itb.accesses                    0                       # DTB accesses
system.cpu0.workload.num_syscalls                   0                       # Number of system calls
system.switch_cpus0.numCycles               282696647                       # number of cpu cycles simulated
system.switch_cpus0.numWorkItemsStarted             0                       # number of work items this cpu started
system.switch_cpus0.numWorkItemsCompleted            0                       # number of work items this cpu completed
system.switch_cpus0.BPredUnit.lookups        21115213                       # Number of BP lookups
system.switch_cpus0.BPredUnit.condPredicted     18752965                       # Number of conditional branches predicted
system.switch_cpus0.BPredUnit.condIncorrect      1829722                       # Number of conditional branches incorrect
system.switch_cpus0.BPredUnit.BTBLookups     11095607                       # Number of BTB lookups
system.switch_cpus0.BPredUnit.BTBHits        10810635                       # Number of BTB hits
system.switch_cpus0.BPredUnit.BTBCorrect            0                       # Number of correct BTB predictions (this stat may not work properly.
system.switch_cpus0.BPredUnit.usedRAS         1340104                       # Number of times the RAS was used to get a target.
system.switch_cpus0.BPredUnit.RASInCorrect        52492                       # Number of incorrect RAS predictions.
system.switch_cpus0.fetch.icacheStallCycles    227859480                       # Number of cycles fetch is stalled on an Icache miss
system.switch_cpus0.fetch.Insts             119576475                       # Number of instructions fetch has processed
system.switch_cpus0.fetch.Branches           21115213                       # Number of branches that fetch encountered
system.switch_cpus0.fetch.predictedBranches     12150739                       # Number of branches that fetch has predicted taken
system.switch_cpus0.fetch.Cycles             24173149                       # Number of cycles fetch has run and was not squashing or blocked
system.switch_cpus0.fetch.SquashCycles        5593859                       # Number of cycles fetch has spent squashing
system.switch_cpus0.fetch.BlockedCycles       2398723                       # Number of cycles fetch has spent blocked
system.switch_cpus0.fetch.PendingTrapStallCycles           23                       # Number of stall cycles due to pending traps
system.switch_cpus0.fetch.CacheLines         13946700                       # Number of cache lines fetched
system.switch_cpus0.fetch.IcacheSquashes      1823247                       # Number of outstanding Icache misses that were squashed
system.switch_cpus0.fetch.rateDist::samples    258186048                       # Number of instructions fetched each cycle (Total)
system.switch_cpus0.fetch.rateDist::mean     0.521690                       # Number of instructions fetched each cycle (Total)
system.switch_cpus0.fetch.rateDist::stdev     1.771171                       # Number of instructions fetched each cycle (Total)
system.switch_cpus0.fetch.rateDist::underflows            0      0.00%      0.00% # Number of instructions fetched each cycle (Total)
system.switch_cpus0.fetch.rateDist::0       234012899     90.64%     90.64% # Number of instructions fetched each cycle (Total)
system.switch_cpus0.fetch.rateDist::1         1096994      0.42%     91.06% # Number of instructions fetched each cycle (Total)
system.switch_cpus0.fetch.rateDist::2         2037274      0.79%     91.85% # Number of instructions fetched each cycle (Total)
system.switch_cpus0.fetch.rateDist::3         1764629      0.68%     92.53% # Number of instructions fetched each cycle (Total)
system.switch_cpus0.fetch.rateDist::4         3577744      1.39%     93.92% # Number of instructions fetched each cycle (Total)
system.switch_cpus0.fetch.rateDist::5         4333956      1.68%     95.60% # Number of instructions fetched each cycle (Total)
system.switch_cpus0.fetch.rateDist::6         1043885      0.40%     96.00% # Number of instructions fetched each cycle (Total)
system.switch_cpus0.fetch.rateDist::7          565716      0.22%     96.22% # Number of instructions fetched each cycle (Total)
system.switch_cpus0.fetch.rateDist::8         9752951      3.78%    100.00% # Number of instructions fetched each cycle (Total)
system.switch_cpus0.fetch.rateDist::overflows            0      0.00%    100.00% # Number of instructions fetched each cycle (Total)
system.switch_cpus0.fetch.rateDist::min_value            0                       # Number of instructions fetched each cycle (Total)
system.switch_cpus0.fetch.rateDist::max_value            8                       # Number of instructions fetched each cycle (Total)
system.switch_cpus0.fetch.rateDist::total    258186048                       # Number of instructions fetched each cycle (Total)
system.switch_cpus0.fetch.branchRate         0.074692                       # Number of branch fetches per cycle
system.switch_cpus0.fetch.rate               0.422985                       # Number of inst fetches per cycle
system.switch_cpus0.decode.IdleCycles       226200128                       # Number of cycles decode is idle
system.switch_cpus0.decode.BlockedCycles      4075517                       # Number of cycles decode is blocked
system.switch_cpus0.decode.RunCycles         24135541                       # Number of cycles decode is running
system.switch_cpus0.decode.UnblockCycles        25020                       # Number of cycles decode is unblocking
system.switch_cpus0.decode.SquashCycles       3749841                       # Number of cycles decode is squashing
system.switch_cpus0.decode.BranchResolved      2059890                       # Number of times decode resolved a branch
system.switch_cpus0.decode.BranchMispred         4832                       # Number of times decode detected a branch misprediction
system.switch_cpus0.decode.DecodedInsts     134614805                       # Number of instructions handled by decode
system.switch_cpus0.decode.SquashedInsts         1334                       # Number of squashed instructions handled by decode
system.switch_cpus0.rename.SquashCycles       3749841                       # Number of cycles rename is squashing
system.switch_cpus0.rename.IdleCycles       226471088                       # Number of cycles rename is idle
system.switch_cpus0.rename.BlockCycles        1989915                       # Number of cycles rename is blocking
system.switch_cpus0.rename.serializeStallCycles      1272869                       # count of cycles rename stalled for serializing inst
system.switch_cpus0.rename.RunCycles         23879022                       # Number of cycles rename is running
system.switch_cpus0.rename.UnblockCycles       823311                       # Number of cycles rename is unblocking
system.switch_cpus0.rename.RenamedInsts     134502742                       # Number of instructions processed by rename
system.switch_cpus0.rename.ROBFullEvents            9                       # Number of times rename has blocked due to ROB full
system.switch_cpus0.rename.IQFullEvents         87763                       # Number of times rename has blocked due to IQ full
system.switch_cpus0.rename.LSQFullEvents       505731                       # Number of times rename has blocked due to LSQ full
system.switch_cpus0.rename.RenamedOperands    177556442                       # Number of destination operands rename has renamed
system.switch_cpus0.rename.RenameLookups    608141542                       # Number of register rename lookups that rename has made
system.switch_cpus0.rename.int_rename_lookups    608141542                       # Number of integer rename lookups
system.switch_cpus0.rename.CommittedMaps    146711191                       # Number of HB maps that are committed
system.switch_cpus0.rename.UndoneMaps        30845243                       # Number of HB maps that are undone due to squashing
system.switch_cpus0.rename.serializingInsts        18451                       # count of serializing insts renamed
system.switch_cpus0.rename.tempSerializingInsts         9231                       # count of temporary serializing insts renamed
system.switch_cpus0.rename.skidInsts          2567448                       # count of insts added to the skid buffer
system.switch_cpus0.memDep0.insertedLoads     23439854                       # Number of loads inserted to the mem dependence unit.
system.switch_cpus0.memDep0.insertedStores      4142586                       # Number of stores inserted to the mem dependence unit.
system.switch_cpus0.memDep0.conflictingLoads        74703                       # Number of conflicting loads.
system.switch_cpus0.memDep0.conflictingStores       927676                       # Number of conflicting stores.
system.switch_cpus0.iq.iqInstsAdded         133999158                       # Number of instructions added to the IQ (excludes non-spec)
system.switch_cpus0.iq.iqNonSpecInstsAdded        18451                       # Number of non-speculative instructions added to the IQ
system.switch_cpus0.iq.iqInstsIssued        127237067                       # Number of instructions issued
system.switch_cpus0.iq.iqSquashedInstsIssued        80154                       # Number of squashed instructions issued
system.switch_cpus0.iq.iqSquashedInstsExamined     20294550                       # Number of squashed instructions iterated over during squash; mainly for profiling
system.switch_cpus0.iq.iqSquashedOperandsExamined     42677586                       # Number of squashed operands that are examined and possibly removed from graph
system.switch_cpus0.iq.iqSquashedNonSpecRemoved           11                       # Number of squashed non-spec instructions that were removed
system.switch_cpus0.iq.issued_per_cycle::samples    258186048                       # Number of insts issued each cycle
system.switch_cpus0.iq.issued_per_cycle::mean     0.492812                       # Number of insts issued each cycle
system.switch_cpus0.iq.issued_per_cycle::stdev     1.175907                       # Number of insts issued each cycle
system.switch_cpus0.iq.issued_per_cycle::underflows            0      0.00%      0.00% # Number of insts issued each cycle
system.switch_cpus0.iq.issued_per_cycle::0    203740274     78.91%     78.91% # Number of insts issued each cycle
system.switch_cpus0.iq.issued_per_cycle::1     22824705      8.84%     87.75% # Number of insts issued each cycle
system.switch_cpus0.iq.issued_per_cycle::2     11700181      4.53%     92.28% # Number of insts issued each cycle
system.switch_cpus0.iq.issued_per_cycle::3      6746901      2.61%     94.90% # Number of insts issued each cycle
system.switch_cpus0.iq.issued_per_cycle::4      7499019      2.90%     97.80% # Number of insts issued each cycle
system.switch_cpus0.iq.issued_per_cycle::5      3758764      1.46%     99.26% # Number of insts issued each cycle
system.switch_cpus0.iq.issued_per_cycle::6      1498956      0.58%     99.84% # Number of insts issued each cycle
system.switch_cpus0.iq.issued_per_cycle::7       350319      0.14%     99.97% # Number of insts issued each cycle
system.switch_cpus0.iq.issued_per_cycle::8        66929      0.03%    100.00% # Number of insts issued each cycle
system.switch_cpus0.iq.issued_per_cycle::overflows            0      0.00%    100.00% # Number of insts issued each cycle
system.switch_cpus0.iq.issued_per_cycle::min_value            0                       # Number of insts issued each cycle
system.switch_cpus0.iq.issued_per_cycle::max_value            8                       # Number of insts issued each cycle
system.switch_cpus0.iq.issued_per_cycle::total    258186048                       # Number of insts issued each cycle
system.switch_cpus0.iq.fu_full::No_OpClass            0      0.00%      0.00% # attempts to use FU when none available
system.switch_cpus0.iq.fu_full::IntAlu         233652     47.81%     47.81% # attempts to use FU when none available
system.switch_cpus0.iq.fu_full::IntMult             0      0.00%     47.81% # attempts to use FU when none available
system.switch_cpus0.iq.fu_full::IntDiv              0      0.00%     47.81% # attempts to use FU when none available
system.switch_cpus0.iq.fu_full::FloatAdd            0      0.00%     47.81% # attempts to use FU when none available
system.switch_cpus0.iq.fu_full::FloatCmp            0      0.00%     47.81% # attempts to use FU when none available
system.switch_cpus0.iq.fu_full::FloatCvt            0      0.00%     47.81% # attempts to use FU when none available
system.switch_cpus0.iq.fu_full::FloatMult            0      0.00%     47.81% # attempts to use FU when none available
system.switch_cpus0.iq.fu_full::FloatDiv            0      0.00%     47.81% # attempts to use FU when none available
system.switch_cpus0.iq.fu_full::FloatSqrt            0      0.00%     47.81% # attempts to use FU when none available
system.switch_cpus0.iq.fu_full::SimdAdd             0      0.00%     47.81% # attempts to use FU when none available
system.switch_cpus0.iq.fu_full::SimdAddAcc            0      0.00%     47.81% # attempts to use FU when none available
system.switch_cpus0.iq.fu_full::SimdAlu             0      0.00%     47.81% # attempts to use FU when none available
system.switch_cpus0.iq.fu_full::SimdCmp             0      0.00%     47.81% # attempts to use FU when none available
system.switch_cpus0.iq.fu_full::SimdCvt             0      0.00%     47.81% # attempts to use FU when none available
system.switch_cpus0.iq.fu_full::SimdMisc            0      0.00%     47.81% # attempts to use FU when none available
system.switch_cpus0.iq.fu_full::SimdMult            0      0.00%     47.81% # attempts to use FU when none available
system.switch_cpus0.iq.fu_full::SimdMultAcc            0      0.00%     47.81% # attempts to use FU when none available
system.switch_cpus0.iq.fu_full::SimdShift            0      0.00%     47.81% # attempts to use FU when none available
system.switch_cpus0.iq.fu_full::SimdShiftAcc            0      0.00%     47.81% # attempts to use FU when none available
system.switch_cpus0.iq.fu_full::SimdSqrt            0      0.00%     47.81% # attempts to use FU when none available
system.switch_cpus0.iq.fu_full::SimdFloatAdd            0      0.00%     47.81% # attempts to use FU when none available
system.switch_cpus0.iq.fu_full::SimdFloatAlu            0      0.00%     47.81% # attempts to use FU when none available
system.switch_cpus0.iq.fu_full::SimdFloatCmp            0      0.00%     47.81% # attempts to use FU when none available
system.switch_cpus0.iq.fu_full::SimdFloatCvt            0      0.00%     47.81% # attempts to use FU when none available
system.switch_cpus0.iq.fu_full::SimdFloatDiv            0      0.00%     47.81% # attempts to use FU when none available
system.switch_cpus0.iq.fu_full::SimdFloatMisc            0      0.00%     47.81% # attempts to use FU when none available
system.switch_cpus0.iq.fu_full::SimdFloatMult            0      0.00%     47.81% # attempts to use FU when none available
system.switch_cpus0.iq.fu_full::SimdFloatMultAcc            0      0.00%     47.81% # attempts to use FU when none available
system.switch_cpus0.iq.fu_full::SimdFloatSqrt            0      0.00%     47.81% # attempts to use FU when none available
system.switch_cpus0.iq.fu_full::MemRead        180101     36.85%     84.66% # attempts to use FU when none available
system.switch_cpus0.iq.fu_full::MemWrite        74954     15.34%    100.00% # attempts to use FU when none available
system.switch_cpus0.iq.fu_full::IprAccess            0      0.00%    100.00% # attempts to use FU when none available
system.switch_cpus0.iq.fu_full::InstPrefetch            0      0.00%    100.00% # attempts to use FU when none available
system.switch_cpus0.iq.FU_type_0::No_OpClass            0      0.00%      0.00% # Type of FU issued
system.switch_cpus0.iq.FU_type_0::IntAlu     99867330     78.49%     78.49% # Type of FU issued
system.switch_cpus0.iq.FU_type_0::IntMult      1005762      0.79%     79.28% # Type of FU issued
system.switch_cpus0.iq.FU_type_0::IntDiv            0      0.00%     79.28% # Type of FU issued
system.switch_cpus0.iq.FU_type_0::FloatAdd            0      0.00%     79.28% # Type of FU issued
system.switch_cpus0.iq.FU_type_0::FloatCmp            0      0.00%     79.28% # Type of FU issued
system.switch_cpus0.iq.FU_type_0::FloatCvt            0      0.00%     79.28% # Type of FU issued
system.switch_cpus0.iq.FU_type_0::FloatMult            0      0.00%     79.28% # Type of FU issued
system.switch_cpus0.iq.FU_type_0::FloatDiv            0      0.00%     79.28% # Type of FU issued
system.switch_cpus0.iq.FU_type_0::FloatSqrt            0      0.00%     79.28% # Type of FU issued
system.switch_cpus0.iq.FU_type_0::SimdAdd            0      0.00%     79.28% # Type of FU issued
system.switch_cpus0.iq.FU_type_0::SimdAddAcc            0      0.00%     79.28% # Type of FU issued
system.switch_cpus0.iq.FU_type_0::SimdAlu            0      0.00%     79.28% # Type of FU issued
system.switch_cpus0.iq.FU_type_0::SimdCmp            0      0.00%     79.28% # Type of FU issued
system.switch_cpus0.iq.FU_type_0::SimdCvt            0      0.00%     79.28% # Type of FU issued
system.switch_cpus0.iq.FU_type_0::SimdMisc            0      0.00%     79.28% # Type of FU issued
system.switch_cpus0.iq.FU_type_0::SimdMult            0      0.00%     79.28% # Type of FU issued
system.switch_cpus0.iq.FU_type_0::SimdMultAcc            0      0.00%     79.28% # Type of FU issued
system.switch_cpus0.iq.FU_type_0::SimdShift            0      0.00%     79.28% # Type of FU issued
system.switch_cpus0.iq.FU_type_0::SimdShiftAcc            0      0.00%     79.28% # Type of FU issued
system.switch_cpus0.iq.FU_type_0::SimdSqrt            0      0.00%     79.28% # Type of FU issued
system.switch_cpus0.iq.FU_type_0::SimdFloatAdd            0      0.00%     79.28% # Type of FU issued
system.switch_cpus0.iq.FU_type_0::SimdFloatAlu            0      0.00%     79.28% # Type of FU issued
system.switch_cpus0.iq.FU_type_0::SimdFloatCmp            0      0.00%     79.28% # Type of FU issued
system.switch_cpus0.iq.FU_type_0::SimdFloatCvt            0      0.00%     79.28% # Type of FU issued
system.switch_cpus0.iq.FU_type_0::SimdFloatDiv            0      0.00%     79.28% # Type of FU issued
system.switch_cpus0.iq.FU_type_0::SimdFloatMisc         9220      0.01%     79.29% # Type of FU issued
system.switch_cpus0.iq.FU_type_0::SimdFloatMult            0      0.00%     79.29% # Type of FU issued
system.switch_cpus0.iq.FU_type_0::SimdFloatMultAcc            0      0.00%     79.29% # Type of FU issued
system.switch_cpus0.iq.FU_type_0::SimdFloatSqrt            0      0.00%     79.29% # Type of FU issued
system.switch_cpus0.iq.FU_type_0::MemRead     22233057     17.47%     96.76% # Type of FU issued
system.switch_cpus0.iq.FU_type_0::MemWrite      4121698      3.24%    100.00% # Type of FU issued
system.switch_cpus0.iq.FU_type_0::IprAccess            0      0.00%    100.00% # Type of FU issued
system.switch_cpus0.iq.FU_type_0::InstPrefetch            0      0.00%    100.00% # Type of FU issued
system.switch_cpus0.iq.FU_type_0::total     127237067                       # Type of FU issued
system.switch_cpus0.iq.rate                  0.450083                       # Inst issue rate
system.switch_cpus0.iq.fu_busy_cnt             488707                       # FU busy when requested
system.switch_cpus0.iq.fu_busy_rate          0.003841                       # FU busy rate (busy events/executed inst)
system.switch_cpus0.iq.int_inst_queue_reads    513229043                       # Number of integer instruction queue reads
system.switch_cpus0.iq.int_inst_queue_writes    154312455                       # Number of integer instruction queue writes
system.switch_cpus0.iq.int_inst_queue_wakeup_accesses    124282897                       # Number of integer instruction queue wakeup accesses
system.switch_cpus0.iq.fp_inst_queue_reads            0                       # Number of floating instruction queue reads
system.switch_cpus0.iq.fp_inst_queue_writes            0                       # Number of floating instruction queue writes
system.switch_cpus0.iq.fp_inst_queue_wakeup_accesses            0                       # Number of floating instruction queue wakeup accesses
system.switch_cpus0.iq.int_alu_accesses     127725774                       # Number of integer alu accesses
system.switch_cpus0.iq.fp_alu_accesses              0                       # Number of floating point alu accesses
system.switch_cpus0.iew.lsq.thread0.forwLoads       224917                       # Number of loads that had data forwarded from stores
system.switch_cpus0.iew.lsq.thread0.invAddrLoads            0                       # Number of loads ignored due to an invalid address
system.switch_cpus0.iew.lsq.thread0.squashedLoads      3914045                       # Number of loads squashed
system.switch_cpus0.iew.lsq.thread0.ignoredResponses          218                       # Number of memory responses ignored because the instruction is squashed
system.switch_cpus0.iew.lsq.thread0.memOrderViolation          296                       # Number of memory ordering violations
system.switch_cpus0.iew.lsq.thread0.squashedStores       113678                       # Number of stores squashed
system.switch_cpus0.iew.lsq.thread0.invAddrSwpfs            0                       # Number of software prefetches ignored due to an invalid address
system.switch_cpus0.iew.lsq.thread0.blockedLoads            0                       # Number of blocked loads due to partial load-store forwarding
system.switch_cpus0.iew.lsq.thread0.rescheduledLoads            0                       # Number of loads that were rescheduled
system.switch_cpus0.iew.lsq.thread0.cacheBlocked            0                       # Number of times an access to memory failed due to the cache being blocked
system.switch_cpus0.iew.iewIdleCycles               0                       # Number of cycles IEW is idle
system.switch_cpus0.iew.iewSquashCycles       3749841                       # Number of cycles IEW is squashing
system.switch_cpus0.iew.iewBlockCycles        1407583                       # Number of cycles IEW is blocking
system.switch_cpus0.iew.iewUnblockCycles        64815                       # Number of cycles IEW is unblocking
system.switch_cpus0.iew.iewDispatchedInsts    134017610                       # Number of instructions dispatched to IQ
system.switch_cpus0.iew.iewDispSquashedInsts         5959                       # Number of squashed instructions skipped by dispatch
system.switch_cpus0.iew.iewDispLoadInsts     23439854                       # Number of dispatched load instructions
system.switch_cpus0.iew.iewDispStoreInsts      4142586                       # Number of dispatched store instructions
system.switch_cpus0.iew.iewDispNonSpecInsts         9231                       # Number of dispatched non-speculative instructions
system.switch_cpus0.iew.iewIQFullEvents         37348                       # Number of times the IQ has become full, causing a stall
system.switch_cpus0.iew.iewLSQFullEvents          525                       # Number of times the LSQ has become full, causing a stall
system.switch_cpus0.iew.memOrderViolationEvents          296                       # Number of memory order violations
system.switch_cpus0.iew.predictedTakenIncorrect       821914                       # Number of branches that were predicted taken incorrectly
system.switch_cpus0.iew.predictedNotTakenIncorrect      1104072                       # Number of branches that were predicted not taken incorrectly
system.switch_cpus0.iew.branchMispredicts      1925986                       # Number of branch mispredicts detected at execute
system.switch_cpus0.iew.iewExecutedInsts    126118539                       # Number of executed instructions
system.switch_cpus0.iew.iewExecLoadInsts     21957942                       # Number of load instructions executed
system.switch_cpus0.iew.iewExecSquashedInsts      1118528                       # Number of squashed instructions skipped in execute
system.switch_cpus0.iew.exec_swp                    0                       # number of swp insts executed
system.switch_cpus0.iew.exec_nop                    1                       # number of nop insts executed
system.switch_cpus0.iew.exec_refs            26079591                       # number of memory reference insts executed
system.switch_cpus0.iew.exec_branches        19491536                       # Number of branches executed
system.switch_cpus0.iew.exec_stores           4121649                       # Number of stores executed
system.switch_cpus0.iew.exec_rate            0.446127                       # Inst execution rate
system.switch_cpus0.iew.wb_sent             124318081                       # cumulative count of insts sent to commit
system.switch_cpus0.iew.wb_count            124282897                       # cumulative count of insts written-back
system.switch_cpus0.iew.wb_producers         71085075                       # num instructions producing a value
system.switch_cpus0.iew.wb_consumers        164038843                       # num instructions consuming a value
system.switch_cpus0.iew.wb_penalized                0                       # number of instrctions required to write to 'other' IQ
system.switch_cpus0.iew.wb_rate              0.439633                       # insts written-back per cycle
system.switch_cpus0.iew.wb_fanout            0.433343                       # average fanout of values written-back
system.switch_cpus0.iew.wb_penalized_rate            0                       # fraction of instructions written-back that wrote to 'other' IQ
system.switch_cpus0.commit.commitCommittedInsts    100000007                       # The number of committed instructions
system.switch_cpus0.commit.commitCommittedOps    112649212                       # The number of committed instructions
system.switch_cpus0.commit.commitSquashedInsts     21371329                       # The number of squashed insts skipped by commit
system.switch_cpus0.commit.commitNonSpecStalls        18440                       # The number of times commit has been forced to stall to communicate backwards
system.switch_cpus0.commit.branchMispredicts      1834125                       # The number of times a branch was mispredicted
system.switch_cpus0.commit.committed_per_cycle::samples    254436207                       # Number of insts commited each cycle
system.switch_cpus0.commit.committed_per_cycle::mean     0.442740                       # Number of insts commited each cycle
system.switch_cpus0.commit.committed_per_cycle::stdev     1.292564                       # Number of insts commited each cycle
system.switch_cpus0.commit.committed_per_cycle::underflows            0      0.00%      0.00% # Number of insts commited each cycle
system.switch_cpus0.commit.committed_per_cycle::0    212220503     83.41%     83.41% # Number of insts commited each cycle
system.switch_cpus0.commit.committed_per_cycle::1     15994126      6.29%     89.69% # Number of insts commited each cycle
system.switch_cpus0.commit.committed_per_cycle::2     12512387      4.92%     94.61% # Number of insts commited each cycle
system.switch_cpus0.commit.committed_per_cycle::3      2471321      0.97%     95.58% # Number of insts commited each cycle
system.switch_cpus0.commit.committed_per_cycle::4      3114544      1.22%     96.81% # Number of insts commited each cycle
system.switch_cpus0.commit.committed_per_cycle::5      1053631      0.41%     97.22% # Number of insts commited each cycle
system.switch_cpus0.commit.committed_per_cycle::6      4529904      1.78%     99.00% # Number of insts commited each cycle
system.switch_cpus0.commit.committed_per_cycle::7      1007734      0.40%     99.40% # Number of insts commited each cycle
system.switch_cpus0.commit.committed_per_cycle::8      1532057      0.60%    100.00% # Number of insts commited each cycle
system.switch_cpus0.commit.committed_per_cycle::overflows            0      0.00%    100.00% # Number of insts commited each cycle
system.switch_cpus0.commit.committed_per_cycle::min_value            0                       # Number of insts commited each cycle
system.switch_cpus0.commit.committed_per_cycle::max_value            8                       # Number of insts commited each cycle
system.switch_cpus0.commit.committed_per_cycle::total    254436207                       # Number of insts commited each cycle
system.switch_cpus0.commit.committedInsts    100000007                       # Number of instructions committed
system.switch_cpus0.commit.committedOps     112649212                       # Number of ops (including micro ops) committed
system.switch_cpus0.commit.swp_count                0                       # Number of s/w prefetches committed
system.switch_cpus0.commit.refs              23554717                       # Number of memory references committed
system.switch_cpus0.commit.loads             19525809                       # Number of loads committed
system.switch_cpus0.commit.membars               9220                       # Number of memory barriers committed
system.switch_cpus0.commit.branches          17774062                       # Number of branches committed
system.switch_cpus0.commit.fp_insts                 0                       # Number of committed floating point instructions.
system.switch_cpus0.commit.int_insts         97983637                       # Number of committed integer instructions.
system.switch_cpus0.commit.function_calls      1421934                       # Number of function calls committed.
system.switch_cpus0.commit.bw_lim_events      1532057                       # number cycles where commit BW limit reached
system.switch_cpus0.commit.bw_limited               0                       # number of insts not committed due to BW limits
system.switch_cpus0.rob.rob_reads           386924691                       # The number of ROB reads
system.switch_cpus0.rob.rob_writes          271791001                       # The number of ROB writes
system.switch_cpus0.timesIdled                6038125                       # Number of times that the entire CPU went into an idle state and unscheduled itself
system.switch_cpus0.idleCycles               24510599                       # Total number of cycles that the CPU has spent unscheduled due to idling
system.switch_cpus0.committedInsts          100000007                       # Number of Instructions Simulated
system.switch_cpus0.committedOps            112649212                       # Number of Ops (including micro ops) Simulated
system.switch_cpus0.committedInsts_total    100000007                       # Number of Instructions Simulated
system.switch_cpus0.cpi                      2.826966                       # CPI: Cycles Per Instruction
system.switch_cpus0.cpi_total                2.826966                       # CPI: Total CPI of All Threads
system.switch_cpus0.ipc                      0.353736                       # IPC: Instructions Per Cycle
system.switch_cpus0.ipc_total                0.353736                       # IPC: Total IPC of All Threads
system.switch_cpus0.int_regfile_reads       584023821                       # number of integer regfile reads
system.switch_cpus0.int_regfile_writes      162091822                       # number of integer regfile writes
system.switch_cpus0.misc_regfile_reads      142414716                       # number of misc regfile reads
system.switch_cpus0.misc_regfile_writes         18440                       # number of misc regfile writes
system.switch_cpus1.dtb.inst_hits                   0                       # ITB inst hits
system.switch_cpus1.dtb.inst_misses                 0                       # ITB inst misses
system.switch_cpus1.dtb.read_hits                   0                       # DTB read hits
system.switch_cpus1.dtb.read_misses                 0                       # DTB read misses
system.switch_cpus1.dtb.write_hits                  0                       # DTB write hits
system.switch_cpus1.dtb.write_misses                0                       # DTB write misses
system.switch_cpus1.dtb.flush_tlb                   0                       # Number of times complete TLB was flushed
system.switch_cpus1.dtb.flush_tlb_mva               0                       # Number of times TLB was flushed by MVA
system.switch_cpus1.dtb.flush_tlb_mva_asid            0                       # Number of times TLB was flushed by MVA & ASID
system.switch_cpus1.dtb.flush_tlb_asid              0                       # Number of times TLB was flushed by ASID
system.switch_cpus1.dtb.flush_entries               0                       # Number of entries that have been flushed from TLB
system.switch_cpus1.dtb.align_faults                0                       # Number of TLB faults due to alignment restrictions
system.switch_cpus1.dtb.prefetch_faults             0                       # Number of TLB faults due to prefetch
system.switch_cpus1.dtb.domain_faults               0                       # Number of TLB faults due to domain restrictions
system.switch_cpus1.dtb.perms_faults                0                       # Number of TLB faults due to permissions restrictions
system.switch_cpus1.dtb.read_accesses               0                       # DTB read accesses
system.switch_cpus1.dtb.write_accesses              0                       # DTB write accesses
system.switch_cpus1.dtb.inst_accesses               0                       # ITB inst accesses
system.switch_cpus1.dtb.hits                        0                       # DTB hits
system.switch_cpus1.dtb.misses                      0                       # DTB misses
system.switch_cpus1.dtb.accesses                    0                       # DTB accesses
system.switch_cpus1.itb.inst_hits                   0                       # ITB inst hits
system.switch_cpus1.itb.inst_misses                 0                       # ITB inst misses
system.switch_cpus1.itb.read_hits                   0                       # DTB read hits
system.switch_cpus1.itb.read_misses                 0                       # DTB read misses
system.switch_cpus1.itb.write_hits                  0                       # DTB write hits
system.switch_cpus1.itb.write_misses                0                       # DTB write misses
system.switch_cpus1.itb.flush_tlb                   0                       # Number of times complete TLB was flushed
system.switch_cpus1.itb.flush_tlb_mva               0                       # Number of times TLB was flushed by MVA
system.switch_cpus1.itb.flush_tlb_mva_asid            0                       # Number of times TLB was flushed by MVA & ASID
system.switch_cpus1.itb.flush_tlb_asid              0                       # Number of times TLB was flushed by ASID
system.switch_cpus1.itb.flush_entries               0                       # Number of entries that have been flushed from TLB
system.switch_cpus1.itb.align_faults                0                       # Number of TLB faults due to alignment restrictions
system.switch_cpus1.itb.prefetch_faults             0                       # Number of TLB faults due to prefetch
system.switch_cpus1.itb.domain_faults               0                       # Number of TLB faults due to domain restrictions
system.switch_cpus1.itb.perms_faults                0                       # Number of TLB faults due to permissions restrictions
system.switch_cpus1.itb.read_accesses               0                       # DTB read accesses
system.switch_cpus1.itb.write_accesses              0                       # DTB write accesses
system.switch_cpus1.itb.inst_accesses               0                       # ITB inst accesses
system.switch_cpus1.itb.hits                        0                       # DTB hits
system.switch_cpus1.itb.misses                      0                       # DTB misses
system.switch_cpus1.itb.accesses                    0                       # DTB accesses
system.cpu1.workload.num_syscalls                   0                       # Number of system calls
system.switch_cpus1.numCycles               282696647                       # number of cpu cycles simulated
system.switch_cpus1.numWorkItemsStarted             0                       # number of work items this cpu started
system.switch_cpus1.numWorkItemsCompleted            0                       # number of work items this cpu completed
system.switch_cpus1.BPredUnit.lookups        25569528                       # Number of BP lookups
system.switch_cpus1.BPredUnit.condPredicted     20708124                       # Number of conditional branches predicted
system.switch_cpus1.BPredUnit.condIncorrect      2340426                       # Number of conditional branches incorrect
system.switch_cpus1.BPredUnit.BTBLookups     10065349                       # Number of BTB lookups
system.switch_cpus1.BPredUnit.BTBHits         9627905                       # Number of BTB hits
system.switch_cpus1.BPredUnit.BTBCorrect            0                       # Number of correct BTB predictions (this stat may not work properly.
system.switch_cpus1.BPredUnit.usedRAS         2869607                       # Number of times the RAS was used to get a target.
system.switch_cpus1.BPredUnit.RASInCorrect       105685                       # Number of incorrect RAS predictions.
system.switch_cpus1.fetch.icacheStallCycles    215933760                       # Number of cycles fetch is stalled on an Icache miss
system.switch_cpus1.fetch.Insts             142173375                       # Number of instructions fetch has processed
system.switch_cpus1.fetch.Branches           25569528                       # Number of branches that fetch encountered
system.switch_cpus1.fetch.predictedBranches     12497512                       # Number of branches that fetch has predicted taken
system.switch_cpus1.fetch.Cycles             31135734                       # Number of cycles fetch has run and was not squashing or blocked
system.switch_cpus1.fetch.SquashCycles        7196438                       # Number of cycles fetch has spent squashing
system.switch_cpus1.fetch.BlockedCycles       5219319                       # Number of cycles fetch has spent blocked
system.switch_cpus1.fetch.CacheLines         13512173                       # Number of cache lines fetched
system.switch_cpus1.fetch.IcacheSquashes      2338997                       # Number of outstanding Icache misses that were squashed
system.switch_cpus1.fetch.rateDist::samples    257092310                       # Number of instructions fetched each cycle (Total)
system.switch_cpus1.fetch.rateDist::mean     0.679577                       # Number of instructions fetched each cycle (Total)
system.switch_cpus1.fetch.rateDist::stdev     2.052438                       # Number of instructions fetched each cycle (Total)
system.switch_cpus1.fetch.rateDist::underflows            0      0.00%      0.00% # Number of instructions fetched each cycle (Total)
system.switch_cpus1.fetch.rateDist::0       225956576     87.89%     87.89% # Number of instructions fetched each cycle (Total)
system.switch_cpus1.fetch.rateDist::1         2903001      1.13%     89.02% # Number of instructions fetched each cycle (Total)
system.switch_cpus1.fetch.rateDist::2         2270502      0.88%     89.90% # Number of instructions fetched each cycle (Total)
system.switch_cpus1.fetch.rateDist::3         5360373      2.08%     91.99% # Number of instructions fetched each cycle (Total)
system.switch_cpus1.fetch.rateDist::4         1154167      0.45%     92.44% # Number of instructions fetched each cycle (Total)
system.switch_cpus1.fetch.rateDist::5         1795112      0.70%     93.13% # Number of instructions fetched each cycle (Total)
system.switch_cpus1.fetch.rateDist::6         1377455      0.54%     93.67% # Number of instructions fetched each cycle (Total)
system.switch_cpus1.fetch.rateDist::7          869017      0.34%     94.01% # Number of instructions fetched each cycle (Total)
system.switch_cpus1.fetch.rateDist::8        15406107      5.99%    100.00% # Number of instructions fetched each cycle (Total)
system.switch_cpus1.fetch.rateDist::overflows            0      0.00%    100.00% # Number of instructions fetched each cycle (Total)
system.switch_cpus1.fetch.rateDist::min_value            0                       # Number of instructions fetched each cycle (Total)
system.switch_cpus1.fetch.rateDist::max_value            8                       # Number of instructions fetched each cycle (Total)
system.switch_cpus1.fetch.rateDist::total    257092310                       # Number of instructions fetched each cycle (Total)
system.switch_cpus1.fetch.branchRate         0.090449                       # Number of branch fetches per cycle
system.switch_cpus1.fetch.rate               0.502919                       # Number of inst fetches per cycle
system.switch_cpus1.decode.IdleCycles       213542026                       # Number of cycles decode is idle
system.switch_cpus1.decode.BlockedCycles      7681955                       # Number of cycles decode is blocked
system.switch_cpus1.decode.RunCycles         31009310                       # Number of cycles decode is running
system.switch_cpus1.decode.UnblockCycles       104401                       # Number of cycles decode is unblocking
system.switch_cpus1.decode.SquashCycles       4754617                       # Number of cycles decode is squashing
system.switch_cpus1.decode.BranchResolved      4415026                       # Number of times decode resolved a branch
system.switch_cpus1.decode.BranchMispred        49595                       # Number of times decode detected a branch misprediction
system.switch_cpus1.decode.DecodedInsts     174368522                       # Number of instructions handled by decode
system.switch_cpus1.decode.SquashedInsts        90034                       # Number of squashed instructions handled by decode
system.switch_cpus1.rename.SquashCycles       4754617                       # Number of cycles rename is squashing
system.switch_cpus1.rename.IdleCycles       214132991                       # Number of cycles rename is idle
system.switch_cpus1.rename.BlockCycles        1923651                       # Number of cycles rename is blocking
system.switch_cpus1.rename.serializeStallCycles      4098868                       # count of cycles rename stalled for serializing inst
system.switch_cpus1.rename.RunCycles         30487322                       # Number of cycles rename is running
system.switch_cpus1.rename.UnblockCycles      1694853                       # Number of cycles rename is unblocking
system.switch_cpus1.rename.RenamedInsts     174203967                       # Number of instructions processed by rename
system.switch_cpus1.rename.ROBFullEvents        28433                       # Number of times rename has blocked due to ROB full
system.switch_cpus1.rename.IQFullEvents        322562                       # Number of times rename has blocked due to IQ full
system.switch_cpus1.rename.LSQFullEvents       626996                       # Number of times rename has blocked due to LSQ full
system.switch_cpus1.rename.FullRegisterEvents       230306                       # Number of times there has been no free registers
system.switch_cpus1.rename.RenamedOperands    245045330                       # Number of destination operands rename has renamed
system.switch_cpus1.rename.RenameLookups    812913986                       # Number of register rename lookups that rename has made
system.switch_cpus1.rename.int_rename_lookups    812913986                       # Number of integer rename lookups
system.switch_cpus1.rename.CommittedMaps    198806805                       # Number of HB maps that are committed
system.switch_cpus1.rename.UndoneMaps        46238525                       # Number of HB maps that are undone due to squashing
system.switch_cpus1.rename.serializingInsts        43496                       # count of serializing insts renamed
system.switch_cpus1.rename.tempSerializingInsts        24235                       # count of temporary serializing insts renamed
system.switch_cpus1.rename.skidInsts          5518949                       # count of insts added to the skid buffer
system.switch_cpus1.memDep0.insertedLoads     16935806                       # Number of loads inserted to the mem dependence unit.
system.switch_cpus1.memDep0.insertedStores      8416166                       # Number of stores inserted to the mem dependence unit.
system.switch_cpus1.memDep0.conflictingLoads       155868                       # Number of conflicting loads.
system.switch_cpus1.memDep0.conflictingStores      1875547                       # Number of conflicting stores.
system.switch_cpus1.iq.iqInstsAdded         172957639                       # Number of instructions added to the IQ (excludes non-spec)
system.switch_cpus1.iq.iqNonSpecInstsAdded        43474                       # Number of non-speculative instructions added to the IQ
system.switch_cpus1.iq.iqInstsIssued        162400603                       # Number of instructions issued
system.switch_cpus1.iq.iqSquashedInstsIssued       167192                       # Number of squashed instructions issued
system.switch_cpus1.iq.iqSquashedInstsExamined     29010024                       # Number of squashed instructions iterated over during squash; mainly for profiling
system.switch_cpus1.iq.iqSquashedOperandsExamined     60459896                       # Number of squashed operands that are examined and possibly removed from graph
system.switch_cpus1.iq.iqSquashedNonSpecRemoved         4966                       # Number of squashed non-spec instructions that were removed
system.switch_cpus1.iq.issued_per_cycle::samples    257092310                       # Number of insts issued each cycle
system.switch_cpus1.iq.issued_per_cycle::mean     0.631682                       # Number of insts issued each cycle
system.switch_cpus1.iq.issued_per_cycle::stdev     1.302896                       # Number of insts issued each cycle
system.switch_cpus1.iq.issued_per_cycle::underflows            0      0.00%      0.00% # Number of insts issued each cycle
system.switch_cpus1.iq.issued_per_cycle::0    187108724     72.78%     72.78% # Number of insts issued each cycle
system.switch_cpus1.iq.issued_per_cycle::1     29972649     11.66%     84.44% # Number of insts issued each cycle
system.switch_cpus1.iq.issued_per_cycle::2     14540844      5.66%     90.09% # Number of insts issued each cycle
system.switch_cpus1.iq.issued_per_cycle::3      9729399      3.78%     93.88% # Number of insts issued each cycle
system.switch_cpus1.iq.issued_per_cycle::4      9002692      3.50%     97.38% # Number of insts issued each cycle
system.switch_cpus1.iq.issued_per_cycle::5      3023372      1.18%     98.56% # Number of insts issued each cycle
system.switch_cpus1.iq.issued_per_cycle::6      3122214      1.21%     99.77% # Number of insts issued each cycle
system.switch_cpus1.iq.issued_per_cycle::7       442171      0.17%     99.94% # Number of insts issued each cycle
system.switch_cpus1.iq.issued_per_cycle::8       150245      0.06%    100.00% # Number of insts issued each cycle
system.switch_cpus1.iq.issued_per_cycle::overflows            0      0.00%    100.00% # Number of insts issued each cycle
system.switch_cpus1.iq.issued_per_cycle::min_value            0                       # Number of insts issued each cycle
system.switch_cpus1.iq.issued_per_cycle::max_value            8                       # Number of insts issued each cycle
system.switch_cpus1.iq.issued_per_cycle::total    257092310                       # Number of insts issued each cycle
system.switch_cpus1.iq.fu_full::No_OpClass            0      0.00%      0.00% # attempts to use FU when none available
system.switch_cpus1.iq.fu_full::IntAlu         465670     58.97%     58.97% # attempts to use FU when none available
system.switch_cpus1.iq.fu_full::IntMult             0      0.00%     58.97% # attempts to use FU when none available
system.switch_cpus1.iq.fu_full::IntDiv              0      0.00%     58.97% # attempts to use FU when none available
system.switch_cpus1.iq.fu_full::FloatAdd            0      0.00%     58.97% # attempts to use FU when none available
system.switch_cpus1.iq.fu_full::FloatCmp            0      0.00%     58.97% # attempts to use FU when none available
system.switch_cpus1.iq.fu_full::FloatCvt            0      0.00%     58.97% # attempts to use FU when none available
system.switch_cpus1.iq.fu_full::FloatMult            0      0.00%     58.97% # attempts to use FU when none available
system.switch_cpus1.iq.fu_full::FloatDiv            0      0.00%     58.97% # attempts to use FU when none available
system.switch_cpus1.iq.fu_full::FloatSqrt            0      0.00%     58.97% # attempts to use FU when none available
system.switch_cpus1.iq.fu_full::SimdAdd             0      0.00%     58.97% # attempts to use FU when none available
system.switch_cpus1.iq.fu_full::SimdAddAcc            0      0.00%     58.97% # attempts to use FU when none available
system.switch_cpus1.iq.fu_full::SimdAlu             0      0.00%     58.97% # attempts to use FU when none available
system.switch_cpus1.iq.fu_full::SimdCmp             0      0.00%     58.97% # attempts to use FU when none available
system.switch_cpus1.iq.fu_full::SimdCvt             0      0.00%     58.97% # attempts to use FU when none available
system.switch_cpus1.iq.fu_full::SimdMisc            0      0.00%     58.97% # attempts to use FU when none available
system.switch_cpus1.iq.fu_full::SimdMult            0      0.00%     58.97% # attempts to use FU when none available
system.switch_cpus1.iq.fu_full::SimdMultAcc            0      0.00%     58.97% # attempts to use FU when none available
system.switch_cpus1.iq.fu_full::SimdShift            0      0.00%     58.97% # attempts to use FU when none available
system.switch_cpus1.iq.fu_full::SimdShiftAcc            0      0.00%     58.97% # attempts to use FU when none available
system.switch_cpus1.iq.fu_full::SimdSqrt            0      0.00%     58.97% # attempts to use FU when none available
system.switch_cpus1.iq.fu_full::SimdFloatAdd            0      0.00%     58.97% # attempts to use FU when none available
system.switch_cpus1.iq.fu_full::SimdFloatAlu            0      0.00%     58.97% # attempts to use FU when none available
system.switch_cpus1.iq.fu_full::SimdFloatCmp            0      0.00%     58.97% # attempts to use FU when none available
system.switch_cpus1.iq.fu_full::SimdFloatCvt            0      0.00%     58.97% # attempts to use FU when none available
system.switch_cpus1.iq.fu_full::SimdFloatDiv            0      0.00%     58.97% # attempts to use FU when none available
system.switch_cpus1.iq.fu_full::SimdFloatMisc            0      0.00%     58.97% # attempts to use FU when none available
system.switch_cpus1.iq.fu_full::SimdFloatMult            0      0.00%     58.97% # attempts to use FU when none available
system.switch_cpus1.iq.fu_full::SimdFloatMultAcc            0      0.00%     58.97% # attempts to use FU when none available
system.switch_cpus1.iq.fu_full::SimdFloatSqrt            0      0.00%     58.97% # attempts to use FU when none available
system.switch_cpus1.iq.fu_full::MemRead        162523     20.58%     79.56% # attempts to use FU when none available
system.switch_cpus1.iq.fu_full::MemWrite       161439     20.44%    100.00% # attempts to use FU when none available
system.switch_cpus1.iq.fu_full::IprAccess            0      0.00%    100.00% # attempts to use FU when none available
system.switch_cpus1.iq.fu_full::InstPrefetch            0      0.00%    100.00% # attempts to use FU when none available
system.switch_cpus1.iq.FU_type_0::No_OpClass            0      0.00%      0.00% # Type of FU issued
system.switch_cpus1.iq.FU_type_0::IntAlu    136404285     83.99%     83.99% # Type of FU issued
system.switch_cpus1.iq.FU_type_0::IntMult      2460318      1.51%     85.51% # Type of FU issued
system.switch_cpus1.iq.FU_type_0::IntDiv            0      0.00%     85.51% # Type of FU issued
system.switch_cpus1.iq.FU_type_0::FloatAdd            0      0.00%     85.51% # Type of FU issued
system.switch_cpus1.iq.FU_type_0::FloatCmp            0      0.00%     85.51% # Type of FU issued
system.switch_cpus1.iq.FU_type_0::FloatCvt            0      0.00%     85.51% # Type of FU issued
system.switch_cpus1.iq.FU_type_0::FloatMult            0      0.00%     85.51% # Type of FU issued
system.switch_cpus1.iq.FU_type_0::FloatDiv            0      0.00%     85.51% # Type of FU issued
system.switch_cpus1.iq.FU_type_0::FloatSqrt            0      0.00%     85.51% # Type of FU issued
system.switch_cpus1.iq.FU_type_0::SimdAdd            0      0.00%     85.51% # Type of FU issued
system.switch_cpus1.iq.FU_type_0::SimdAddAcc            0      0.00%     85.51% # Type of FU issued
system.switch_cpus1.iq.FU_type_0::SimdAlu            0      0.00%     85.51% # Type of FU issued
system.switch_cpus1.iq.FU_type_0::SimdCmp            0      0.00%     85.51% # Type of FU issued
system.switch_cpus1.iq.FU_type_0::SimdCvt            0      0.00%     85.51% # Type of FU issued
system.switch_cpus1.iq.FU_type_0::SimdMisc            0      0.00%     85.51% # Type of FU issued
system.switch_cpus1.iq.FU_type_0::SimdMult            0      0.00%     85.51% # Type of FU issued
system.switch_cpus1.iq.FU_type_0::SimdMultAcc            0      0.00%     85.51% # Type of FU issued
system.switch_cpus1.iq.FU_type_0::SimdShift            0      0.00%     85.51% # Type of FU issued
system.switch_cpus1.iq.FU_type_0::SimdShiftAcc            0      0.00%     85.51% # Type of FU issued
system.switch_cpus1.iq.FU_type_0::SimdSqrt            0      0.00%     85.51% # Type of FU issued
system.switch_cpus1.iq.FU_type_0::SimdFloatAdd            0      0.00%     85.51% # Type of FU issued
system.switch_cpus1.iq.FU_type_0::SimdFloatAlu            0      0.00%     85.51% # Type of FU issued
system.switch_cpus1.iq.FU_type_0::SimdFloatCmp            0      0.00%     85.51% # Type of FU issued
system.switch_cpus1.iq.FU_type_0::SimdFloatCvt            0      0.00%     85.51% # Type of FU issued
system.switch_cpus1.iq.FU_type_0::SimdFloatDiv            0      0.00%     85.51% # Type of FU issued
system.switch_cpus1.iq.FU_type_0::SimdFloatMisc        19254      0.01%     85.52% # Type of FU issued
system.switch_cpus1.iq.FU_type_0::SimdFloatMult            0      0.00%     85.52% # Type of FU issued
system.switch_cpus1.iq.FU_type_0::SimdFloatMultAcc            0      0.00%     85.52% # Type of FU issued
system.switch_cpus1.iq.FU_type_0::SimdFloatSqrt            0      0.00%     85.52% # Type of FU issued
system.switch_cpus1.iq.FU_type_0::MemRead     15167785      9.34%     94.86% # Type of FU issued
system.switch_cpus1.iq.FU_type_0::MemWrite      8348961      5.14%    100.00% # Type of FU issued
system.switch_cpus1.iq.FU_type_0::IprAccess            0      0.00%    100.00% # Type of FU issued
system.switch_cpus1.iq.FU_type_0::InstPrefetch            0      0.00%    100.00% # Type of FU issued
system.switch_cpus1.iq.FU_type_0::total     162400603                       # Type of FU issued
system.switch_cpus1.iq.rate                  0.574470                       # Inst issue rate
system.switch_cpus1.iq.fu_busy_cnt             789632                       # FU busy when requested
system.switch_cpus1.iq.fu_busy_rate          0.004862                       # FU busy rate (busy events/executed inst)
system.switch_cpus1.iq.int_inst_queue_reads    582850340                       # Number of integer instruction queue reads
system.switch_cpus1.iq.int_inst_queue_writes    202011695                       # Number of integer instruction queue writes
system.switch_cpus1.iq.int_inst_queue_wakeup_accesses    158230966                       # Number of integer instruction queue wakeup accesses
system.switch_cpus1.iq.fp_inst_queue_reads            0                       # Number of floating instruction queue reads
system.switch_cpus1.iq.fp_inst_queue_writes            0                       # Number of floating instruction queue writes
system.switch_cpus1.iq.fp_inst_queue_wakeup_accesses            0                       # Number of floating instruction queue wakeup accesses
system.switch_cpus1.iq.int_alu_accesses     163190235                       # Number of integer alu accesses
system.switch_cpus1.iq.fp_alu_accesses              0                       # Number of floating point alu accesses
system.switch_cpus1.iew.lsq.thread0.forwLoads       408197                       # Number of loads that had data forwarded from stores
system.switch_cpus1.iew.lsq.thread0.invAddrLoads            0                       # Number of loads ignored due to an invalid address
system.switch_cpus1.iew.lsq.thread0.squashedLoads      3853235                       # Number of loads squashed
system.switch_cpus1.iew.lsq.thread0.ignoredResponses         1112                       # Number of memory responses ignored because the instruction is squashed
system.switch_cpus1.iew.lsq.thread0.memOrderViolation          558                       # Number of memory ordering violations
system.switch_cpus1.iew.lsq.thread0.squashedStores       234746                       # Number of stores squashed
system.switch_cpus1.iew.lsq.thread0.invAddrSwpfs            0                       # Number of software prefetches ignored due to an invalid address
system.switch_cpus1.iew.lsq.thread0.blockedLoads            0                       # Number of blocked loads due to partial load-store forwarding
system.switch_cpus1.iew.lsq.thread0.rescheduledLoads            1                       # Number of loads that were rescheduled
system.switch_cpus1.iew.lsq.thread0.cacheBlocked            0                       # Number of times an access to memory failed due to the cache being blocked
system.switch_cpus1.iew.iewIdleCycles               0                       # Number of cycles IEW is idle
system.switch_cpus1.iew.iewSquashCycles       4754617                       # Number of cycles IEW is squashing
system.switch_cpus1.iew.iewBlockCycles        1206191                       # Number of cycles IEW is blocking
system.switch_cpus1.iew.iewUnblockCycles       112068                       # Number of cycles IEW is unblocking
system.switch_cpus1.iew.iewDispatchedInsts    173001113                       # Number of instructions dispatched to IQ
system.switch_cpus1.iew.iewDispSquashedInsts        11545                       # Number of squashed instructions skipped by dispatch
system.switch_cpus1.iew.iewDispLoadInsts     16935806                       # Number of dispatched load instructions
system.switch_cpus1.iew.iewDispStoreInsts      8416166                       # Number of dispatched store instructions
system.switch_cpus1.iew.iewDispNonSpecInsts        24220                       # Number of dispatched non-speculative instructions
system.switch_cpus1.iew.iewIQFullEvents         94519                       # Number of times the IQ has become full, causing a stall
system.switch_cpus1.iew.iewLSQFullEvents            2                       # Number of times the LSQ has become full, causing a stall
system.switch_cpus1.iew.memOrderViolationEvents          558                       # Number of memory order violations
system.switch_cpus1.iew.predictedTakenIncorrect      1268921                       # Number of branches that were predicted taken incorrectly
system.switch_cpus1.iew.predictedNotTakenIncorrect      1330211                       # Number of branches that were predicted not taken incorrectly
system.switch_cpus1.iew.branchMispredicts      2599132                       # Number of branch mispredicts detected at execute
system.switch_cpus1.iew.iewExecutedInsts    159438977                       # Number of executed instructions
system.switch_cpus1.iew.iewExecLoadInsts     14642765                       # Number of load instructions executed
system.switch_cpus1.iew.iewExecSquashedInsts      2961626                       # Number of squashed instructions skipped in execute
system.switch_cpus1.iew.exec_swp                    0                       # number of swp insts executed
system.switch_cpus1.iew.exec_nop                    0                       # number of nop insts executed
system.switch_cpus1.iew.exec_refs            22990389                       # number of memory reference insts executed
system.switch_cpus1.iew.exec_branches        22601045                       # Number of branches executed
system.switch_cpus1.iew.exec_stores           8347624                       # Number of stores executed
system.switch_cpus1.iew.exec_rate            0.563993                       # Inst execution rate
system.switch_cpus1.iew.wb_sent             158231859                       # cumulative count of insts sent to commit
system.switch_cpus1.iew.wb_count            158230966                       # cumulative count of insts written-back
system.switch_cpus1.iew.wb_producers         93697548                       # num instructions producing a value
system.switch_cpus1.iew.wb_consumers        258740501                       # num instructions consuming a value
system.switch_cpus1.iew.wb_penalized                0                       # number of instrctions required to write to 'other' IQ
system.switch_cpus1.iew.wb_rate              0.559720                       # insts written-back per cycle
system.switch_cpus1.iew.wb_fanout            0.362129                       # average fanout of values written-back
system.switch_cpus1.iew.wb_penalized_rate            0                       # fraction of instructions written-back that wrote to 'other' IQ
system.switch_cpus1.commit.commitCommittedInsts    116465772                       # The number of committed instructions
system.switch_cpus1.commit.commitCommittedOps    143029095                       # The number of committed instructions
system.switch_cpus1.commit.commitSquashedInsts     29973343                       # The number of squashed insts skipped by commit
system.switch_cpus1.commit.commitNonSpecStalls        38508                       # The number of times commit has been forced to stall to communicate backwards
system.switch_cpus1.commit.branchMispredicts      2343684                       # The number of times a branch was mispredicted
system.switch_cpus1.commit.committed_per_cycle::samples    252337693                       # Number of insts commited each cycle
system.switch_cpus1.commit.committed_per_cycle::mean     0.566816                       # Number of insts commited each cycle
system.switch_cpus1.commit.committed_per_cycle::stdev     1.371695                       # Number of insts commited each cycle
system.switch_cpus1.commit.committed_per_cycle::underflows            0      0.00%      0.00% # Number of insts commited each cycle
system.switch_cpus1.commit.committed_per_cycle::0    192290712     76.20%     76.20% # Number of insts commited each cycle
system.switch_cpus1.commit.committed_per_cycle::1     28258477     11.20%     87.40% # Number of insts commited each cycle
system.switch_cpus1.commit.committed_per_cycle::2     12335808      4.89%     92.29% # Number of insts commited each cycle
system.switch_cpus1.commit.committed_per_cycle::3      7006993      2.78%     95.07% # Number of insts commited each cycle
system.switch_cpus1.commit.committed_per_cycle::4      5078892      2.01%     97.08% # Number of insts commited each cycle
system.switch_cpus1.commit.committed_per_cycle::5      1991195      0.79%     97.87% # Number of insts commited each cycle
system.switch_cpus1.commit.committed_per_cycle::6      1543417      0.61%     98.48% # Number of insts commited each cycle
system.switch_cpus1.commit.committed_per_cycle::7      1111614      0.44%     98.92% # Number of insts commited each cycle
system.switch_cpus1.commit.committed_per_cycle::8      2720585      1.08%    100.00% # Number of insts commited each cycle
system.switch_cpus1.commit.committed_per_cycle::overflows            0      0.00%    100.00% # Number of insts commited each cycle
system.switch_cpus1.commit.committed_per_cycle::min_value            0                       # Number of insts commited each cycle
system.switch_cpus1.commit.committed_per_cycle::max_value            8                       # Number of insts commited each cycle
system.switch_cpus1.commit.committed_per_cycle::total    252337693                       # Number of insts commited each cycle
system.switch_cpus1.commit.committedInsts    116465772                       # Number of instructions committed
system.switch_cpus1.commit.committedOps     143029095                       # Number of ops (including micro ops) committed
system.switch_cpus1.commit.swp_count                0                       # Number of s/w prefetches committed
[...]
system.cpu2.icache.ReadReq_miss_latency::total      3420879                       # number of ReadReq miss cycles
system.cpu2.icache.demand_miss_latency::switch_cpus2.inst      3420879                       # number of demand (read+write) miss cycles
system.cpu2.icache.demand_miss_latency::total      3420879                       # number of demand (read+write) miss cycles
system.cpu2.icache.overall_miss_latency::switch_cpus2.inst      3420879                       # number of overall miss cycles
system.cpu2.icache.overall_miss_latency::total      3420879                       # number of overall miss cycles
system.cpu2.icache.ReadReq_accesses::switch_cpus2.inst     13677973                       # number of ReadReq accesses(hits+misses)
system.cpu2.icache.ReadReq_accesses::total     13677973                       # number of ReadReq accesses(hits+misses)
system.cpu2.icache.demand_accesses::switch_cpus2.inst     13677973                       # number of demand (read+write) accesses
system.cpu2.icache.demand_accesses::total     13677973                       # number of demand (read+write) accesses
system.cpu2.icache.overall_accesses::switch_cpus2.inst     13677973                       # number of overall (read+write) accesses
system.cpu2.icache.overall_accesses::total     13677973                       # number of overall (read+write) accesses
system.cpu2.icache.ReadReq_miss_rate::switch_cpus2.inst     0.000001                       # miss rate for ReadReq accesses
system.cpu2.icache.ReadReq_miss_rate::total     0.000001                       # miss rate for ReadReq accesses
system.cpu2.icache.demand_miss_rate::switch_cpus2.inst     0.000001                       # miss rate for demand accesses
system.cpu2.icache.demand_miss_rate::total     0.000001                       # miss rate for demand accesses
system.cpu2.icache.overall_miss_rate::switch_cpus2.inst     0.000001                       # miss rate for overall accesses
system.cpu2.icache.overall_miss_rate::total     0.000001                       # miss rate for overall accesses
system.cpu2.icache.ReadReq_avg_miss_latency::switch_cpus2.inst 228058.600000                       # average ReadReq miss latency
system.cpu2.icache.ReadReq_avg_miss_latency::total 228058.600000                       # average ReadReq miss latency
system.cpu2.icache.demand_avg_miss_latency::switch_cpus2.inst 228058.600000                       # average overall miss latency
system.cpu2.icache.demand_avg_miss_latency::total 228058.600000                       # average overall miss latency
system.cpu2.icache.overall_avg_miss_latency::switch_cpus2.inst 228058.600000                       # average overall miss latency
system.cpu2.icache.overall_avg_miss_latency::total 228058.600000                       # average overall miss latency
system.cpu2.icache.blocked_cycles::no_mshrs            0                       # number of cycles access was blocked
system.cpu2.icache.blocked_cycles::no_targets            0                       # number of cycles access was blocked
system.cpu2.icache.blocked::no_mshrs                0                       # number of cycles access was blocked
system.cpu2.icache.blocked::no_targets              0                       # number of cycles access was blocked
system.cpu2.icache.avg_blocked_cycles::no_mshrs          nan                       # average number of cycles each access was blocked
system.cpu2.icache.avg_blocked_cycles::no_targets          nan                       # average number of cycles each access was blocked
system.cpu2.icache.fast_writes                      0                       # number of fast writes performed
system.cpu2.icache.cache_copies                     0                       # number of cache copies performed
system.cpu2.icache.ReadReq_mshr_hits::switch_cpus2.inst            1                       # number of ReadReq MSHR hits
system.cpu2.icache.ReadReq_mshr_hits::total            1                       # number of ReadReq MSHR hits
system.cpu2.icache.demand_mshr_hits::switch_cpus2.inst            1                       # number of demand (read+write) MSHR hits
system.cpu2.icache.demand_mshr_hits::total            1                       # number of demand (read+write) MSHR hits
system.cpu2.icache.overall_mshr_hits::switch_cpus2.inst            1                       # number of overall MSHR hits
system.cpu2.icache.overall_mshr_hits::total            1                       # number of overall MSHR hits
system.cpu2.icache.ReadReq_mshr_misses::switch_cpus2.inst           14                       # number of ReadReq MSHR misses
system.cpu2.icache.ReadReq_mshr_misses::total           14                       # number of ReadReq MSHR misses
system.cpu2.icache.demand_mshr_misses::switch_cpus2.inst           14                       # number of demand (read+write) MSHR misses
system.cpu2.icache.demand_mshr_misses::total           14                       # number of demand (read+write) MSHR misses
system.cpu2.icache.overall_mshr_misses::switch_cpus2.inst           14                       # number of overall MSHR misses
system.cpu2.icache.overall_mshr_misses::total           14                       # number of overall MSHR misses
system.cpu2.icache.ReadReq_mshr_miss_latency::switch_cpus2.inst      3075852                       # number of ReadReq MSHR miss cycles
system.cpu2.icache.ReadReq_mshr_miss_latency::total      3075852                       # number of ReadReq MSHR miss cycles
system.cpu2.icache.demand_mshr_miss_latency::switch_cpus2.inst      3075852                       # number of demand (read+write) MSHR miss cycles
system.cpu2.icache.demand_mshr_miss_latency::total      3075852                       # number of demand (read+write) MSHR miss cycles
system.cpu2.icache.overall_mshr_miss_latency::switch_cpus2.inst      3075852                       # number of overall MSHR miss cycles
system.cpu2.icache.overall_mshr_miss_latency::total      3075852                       # number of overall MSHR miss cycles
system.cpu2.icache.ReadReq_mshr_miss_rate::switch_cpus2.inst     0.000001                       # mshr miss rate for ReadReq accesses
system.cpu2.icache.ReadReq_mshr_miss_rate::total     0.000001                       # mshr miss rate for ReadReq accesses
system.cpu2.icache.demand_mshr_miss_rate::switch_cpus2.inst     0.000001                       # mshr miss rate for demand accesses
system.cpu2.icache.demand_mshr_miss_rate::total     0.000001                       # mshr miss rate for demand accesses
system.cpu2.icache.overall_mshr_miss_rate::switch_cpus2.inst     0.000001                       # mshr miss rate for overall accesses
system.cpu2.icache.overall_mshr_miss_rate::total     0.000001                       # mshr miss rate for overall accesses
system.cpu2.icache.ReadReq_avg_mshr_miss_latency::switch_cpus2.inst 219703.714286                       # average ReadReq mshr miss latency
system.cpu2.icache.ReadReq_avg_mshr_miss_latency::total 219703.714286                       # average ReadReq mshr miss latency
system.cpu2.icache.demand_avg_mshr_miss_latency::switch_cpus2.inst 219703.714286                       # average overall mshr miss latency
system.cpu2.icache.demand_avg_mshr_miss_latency::total 219703.714286                       # average overall mshr miss latency
system.cpu2.icache.overall_avg_mshr_miss_latency::switch_cpus2.inst 219703.714286                       # average overall mshr miss latency
system.cpu2.icache.overall_avg_mshr_miss_latency::total 219703.714286                       # average overall mshr miss latency
system.cpu2.icache.no_allocate_misses               0                       # Number of misses that were no-allocate
system.cpu2.dcache.replacements                 46314                       # number of replacements
system.cpu2.dcache.tagsinuse                      256                       # Cycle average of tags in use
system.cpu2.dcache.total_refs               183562861                       # Total number of references to valid blocks.
system.cpu2.dcache.sampled_refs                 46570                       # Sample count of references to valid blocks.
system.cpu2.dcache.avg_refs               3941.654735                       # Average number of references to valid blocks.
system.cpu2.dcache.warmup_cycle                     0                       # Cycle when the warmup percentage was hit.
system.cpu2.dcache.occ_blocks::switch_cpus2.data   232.699359                       # Average occupied blocks per requestor
system.cpu2.dcache.occ_blocks::cpu2.data    23.300641                       # Average occupied blocks per requestor
system.cpu2.dcache.occ_percent::switch_cpus2.data     0.908982                       # Average percentage of cache occupancy
system.cpu2.dcache.occ_percent::cpu2.data     0.091018                       # Average percentage of cache occupancy
system.cpu2.dcache.occ_percent::total               1                       # Average percentage of cache occupancy
system.cpu2.dcache.ReadReq_hits::switch_cpus2.data     11014962                       # number of ReadReq hits
system.cpu2.dcache.ReadReq_hits::total       11014962                       # number of ReadReq hits
system.cpu2.dcache.WriteReq_hits::switch_cpus2.data      8388366                       # number of WriteReq hits
system.cpu2.dcache.WriteReq_hits::total       8388366                       # number of WriteReq hits
system.cpu2.dcache.LoadLockedReq_hits::switch_cpus2.data        20092                       # number of LoadLockedReq hits
system.cpu2.dcache.LoadLockedReq_hits::total        20092                       # number of LoadLockedReq hits
system.cpu2.dcache.StoreCondReq_hits::switch_cpus2.data        20092                       # number of StoreCondReq hits
system.cpu2.dcache.StoreCondReq_hits::total        20092                       # number of StoreCondReq hits
system.cpu2.dcache.demand_hits::switch_cpus2.data     19403328                       # number of demand (read+write) hits
system.cpu2.dcache.demand_hits::total        19403328                       # number of demand (read+write) hits
system.cpu2.dcache.overall_hits::switch_cpus2.data     19403328                       # number of overall hits
system.cpu2.dcache.overall_hits::total       19403328                       # number of overall hits
system.cpu2.dcache.ReadReq_misses::switch_cpus2.data       139327                       # number of ReadReq misses
system.cpu2.dcache.ReadReq_misses::total       139327                       # number of ReadReq misses
system.cpu2.dcache.demand_misses::switch_cpus2.data       139327                       # number of demand (read+write) misses
system.cpu2.dcache.demand_misses::total        139327                       # number of demand (read+write) misses
system.cpu2.dcache.overall_misses::switch_cpus2.data       139327                       # number of overall misses
system.cpu2.dcache.overall_misses::total       139327                       # number of overall misses
system.cpu2.dcache.ReadReq_miss_latency::switch_cpus2.data  15068463339                       # number of ReadReq miss cycles
system.cpu2.dcache.ReadReq_miss_latency::total  15068463339                       # number of ReadReq miss cycles
system.cpu2.dcache.demand_miss_latency::switch_cpus2.data  15068463339                       # number of demand (read+write) miss cycles
system.cpu2.dcache.demand_miss_latency::total  15068463339                       # number of demand (read+write) miss cycles
system.cpu2.dcache.overall_miss_latency::switch_cpus2.data  15068463339                       # number of overall miss cycles
system.cpu2.dcache.overall_miss_latency::total  15068463339                       # number of overall miss cycles
system.cpu2.dcache.ReadReq_accesses::switch_cpus2.data     11154289                       # number of ReadReq accesses(hits+misses)
system.cpu2.dcache.ReadReq_accesses::total     11154289                       # number of ReadReq accesses(hits+misses)
system.cpu2.dcache.WriteReq_accesses::switch_cpus2.data      8388366                       # number of WriteReq accesses(hits+misses)
system.cpu2.dcache.WriteReq_accesses::total      8388366                       # number of WriteReq accesses(hits+misses)
system.cpu2.dcache.LoadLockedReq_accesses::switch_cpus2.data        20092                       # number of LoadLockedReq accesses(hits+misses)
system.cpu2.dcache.LoadLockedReq_accesses::total        20092                       # number of LoadLockedReq accesses(hits+misses)
system.cpu2.dcache.StoreCondReq_accesses::switch_cpus2.data        20092                       # number of StoreCondReq accesses(hits+misses)
system.cpu2.dcache.StoreCondReq_accesses::total        20092                       # number of StoreCondReq accesses(hits+misses)
system.cpu2.dcache.demand_accesses::switch_cpus2.data     19542655                       # number of demand (read+write) accesses
system.cpu2.dcache.demand_accesses::total     19542655                       # number of demand (read+write) accesses
system.cpu2.dcache.overall_accesses::switch_cpus2.data     19542655                       # number of overall (read+write) accesses
system.cpu2.dcache.overall_accesses::total     19542655                       # number of overall (read+write) accesses
system.cpu2.dcache.ReadReq_miss_rate::switch_cpus2.data     0.012491                       # miss rate for ReadReq accesses
system.cpu2.dcache.ReadReq_miss_rate::total     0.012491                       # miss rate for ReadReq accesses
system.cpu2.dcache.demand_miss_rate::switch_cpus2.data     0.007129                       # miss rate for demand accesses
system.cpu2.dcache.demand_miss_rate::total     0.007129                       # miss rate for demand accesses
system.cpu2.dcache.overall_miss_rate::switch_cpus2.data     0.007129                       # miss rate for overall accesses
system.cpu2.dcache.overall_miss_rate::total     0.007129                       # miss rate for overall accesses
system.cpu2.dcache.ReadReq_avg_miss_latency::switch_cpus2.data 108151.782059                       # average ReadReq miss latency
system.cpu2.dcache.ReadReq_avg_miss_latency::total 108151.782059                       # average ReadReq miss latency
system.cpu2.dcache.demand_avg_miss_latency::switch_cpus2.data 108151.782059                       # average overall miss latency
system.cpu2.dcache.demand_avg_miss_latency::total 108151.782059                       # average overall miss latency
system.cpu2.dcache.overall_avg_miss_latency::switch_cpus2.data 108151.782059                       # average overall miss latency
system.cpu2.dcache.overall_avg_miss_latency::total 108151.782059                       # average overall miss latency
system.cpu2.dcache.blocked_cycles::no_mshrs            0                       # number of cycles access was blocked
system.cpu2.dcache.blocked_cycles::no_targets            0                       # number of cycles access was blocked
system.cpu2.dcache.blocked::no_mshrs                0                       # number of cycles access was blocked
system.cpu2.dcache.blocked::no_targets              0                       # number of cycles access was blocked
system.cpu2.dcache.avg_blocked_cycles::no_mshrs          nan                       # average number of cycles each access was blocked
system.cpu2.dcache.avg_blocked_cycles::no_targets          nan                       # average number of cycles each access was blocked
system.cpu2.dcache.fast_writes                      0                       # number of fast writes performed
system.cpu2.dcache.cache_copies                     0                       # number of cache copies performed
system.cpu2.dcache.writebacks::writebacks        12464                       # number of writebacks
system.cpu2.dcache.writebacks::total            12464                       # number of writebacks
system.cpu2.dcache.ReadReq_mshr_hits::switch_cpus2.data        93013                       # number of ReadReq MSHR hits
system.cpu2.dcache.ReadReq_mshr_hits::total        93013                       # number of ReadReq MSHR hits
system.cpu2.dcache.demand_mshr_hits::switch_cpus2.data        93013                       # number of demand (read+write) MSHR hits
system.cpu2.dcache.demand_mshr_hits::total        93013                       # number of demand (read+write) MSHR hits
system.cpu2.dcache.overall_mshr_hits::switch_cpus2.data        93013                       # number of overall MSHR hits
system.cpu2.dcache.overall_mshr_hits::total        93013                       # number of overall MSHR hits
system.cpu2.dcache.ReadReq_mshr_misses::switch_cpus2.data        46314                       # number of ReadReq MSHR misses
system.cpu2.dcache.ReadReq_mshr_misses::total        46314                       # number of ReadReq MSHR misses
system.cpu2.dcache.demand_mshr_misses::switch_cpus2.data        46314                       # number of demand (read+write) MSHR misses
system.cpu2.dcache.demand_mshr_misses::total        46314                       # number of demand (read+write) MSHR misses
system.cpu2.dcache.overall_mshr_misses::switch_cpus2.data        46314                       # number of overall MSHR misses
system.cpu2.dcache.overall_mshr_misses::total        46314                       # number of overall MSHR misses
system.cpu2.dcache.ReadReq_mshr_miss_latency::switch_cpus2.data   3872777641                       # number of ReadReq MSHR miss cycles
system.cpu2.dcache.ReadReq_mshr_miss_latency::total   3872777641                       # number of ReadReq MSHR miss cycles
system.cpu2.dcache.demand_mshr_miss_latency::switch_cpus2.data   3872777641                       # number of demand (read+write) MSHR miss cycles
system.cpu2.dcache.demand_mshr_miss_latency::total   3872777641                       # number of demand (read+write) MSHR miss cycles
system.cpu2.dcache.overall_mshr_miss_latency::switch_cpus2.data   3872777641                       # number of overall MSHR miss cycles
system.cpu2.dcache.overall_mshr_miss_latency::total   3872777641                       # number of overall MSHR miss cycles
system.cpu2.dcache.ReadReq_mshr_miss_rate::switch_cpus2.data     0.004152                       # mshr miss rate for ReadReq accesses
system.cpu2.dcache.ReadReq_mshr_miss_rate::total     0.004152                       # mshr miss rate for ReadReq accesses
system.cpu2.dcache.demand_mshr_miss_rate::switch_cpus2.data     0.002370                       # mshr miss rate for demand accesses
system.cpu2.dcache.demand_mshr_miss_rate::total     0.002370                       # mshr miss rate for demand accesses
system.cpu2.dcache.overall_mshr_miss_rate::switch_cpus2.data     0.002370                       # mshr miss rate for overall accesses
system.cpu2.dcache.overall_mshr_miss_rate::total     0.002370                       # mshr miss rate for overall accesses
system.cpu2.dcache.ReadReq_avg_mshr_miss_latency::switch_cpus2.data 83620.020750                       # average ReadReq mshr miss latency
system.cpu2.dcache.ReadReq_avg_mshr_miss_latency::total 83620.020750                       # average ReadReq mshr miss latency
system.cpu2.dcache.demand_avg_mshr_miss_latency::switch_cpus2.data 83620.020750                       # average overall mshr miss latency
system.cpu2.dcache.demand_avg_mshr_miss_latency::total 83620.020750                       # average overall mshr miss latency
system.cpu2.dcache.overall_avg_mshr_miss_latency::switch_cpus2.data 83620.020750                       # average overall mshr miss latency
system.cpu2.dcache.overall_avg_mshr_miss_latency::total 83620.020750                       # average overall mshr miss latency
system.cpu2.dcache.no_allocate_misses               0                       # Number of misses that were no-allocate

---------- End Simulation Statistics   ----------
