
---------- Begin Simulation Statistics ----------
sim_seconds                                  0.116304                       # Number of seconds simulated
sim_ticks                                116304040107                       # Number of ticks simulated
final_tick                               686135333241                       # Number of ticks from beginning of simulation (restored from checkpoints and never reset)
sim_freq                                 1000000000000                       # Frequency of simulated ticks
host_inst_rate                                 136248                       # Simulator instruction rate (inst/s)
host_op_rate                                   177208                       # Simulator op (including micro ops) rate (op/s)
host_tick_rate                                6909227                       # Simulator tick rate (ticks/s)
host_mem_usage                               16917540                       # Number of bytes of host memory used
host_seconds                                 16833.15                       # Real time elapsed on the host
sim_insts                                  2293487681                       # Number of instructions simulated
sim_ops                                    2982966803                       # Number of ops (including micro ops) simulated
system.physmem.bytes_read::switch_cpus0.inst         1664                       # Number of bytes read from this memory
system.physmem.bytes_read::switch_cpus0.data       587648                       # Number of bytes read from this memory
system.physmem.bytes_read::switch_cpus1.inst         1664                       # Number of bytes read from this memory
system.physmem.bytes_read::switch_cpus1.data       455168                       # Number of bytes read from this memory
system.physmem.bytes_read::total              1046144                       # Number of bytes read from this memory
system.physmem.bytes_inst_read::switch_cpus0.inst         1664                       # Number of instructions bytes read from this memory
system.physmem.bytes_inst_read::switch_cpus1.inst         1664                       # Number of instructions bytes read from this memory
system.physmem.bytes_inst_read::total            3328                       # Number of instructions bytes read from this memory
system.physmem.bytes_written::writebacks      1024000                       # Number of bytes written to this memory
system.physmem.bytes_written::total           1024000                       # Number of bytes written to this memory
system.physmem.num_reads::switch_cpus0.inst           13                       # Number of read requests responded to by this memory
system.physmem.num_reads::switch_cpus0.data         4591                       # Number of read requests responded to by this memory
system.physmem.num_reads::switch_cpus1.inst           13                       # Number of read requests responded to by this memory
system.physmem.num_reads::switch_cpus1.data         3556                       # Number of read requests responded to by this memory
system.physmem.num_reads::total                  8173                       # Number of read requests responded to by this memory
system.physmem.num_writes::writebacks            8000                       # Number of write requests responded to by this memory
system.physmem.num_writes::functional               0                       # Number of write requests responded to by this memory
system.physmem.num_writes::interrupt                0                       # Number of write requests responded to by this memory
system.physmem.num_writes::switch_cpus0.dtb.walker            0                       # Number of write requests responded to by this memory
system.physmem.num_writes::switch_cpus0.itb.walker            0                       # Number of write requests responded to by this memory
system.physmem.num_writes::switch_cpus0.inst            0                       # Number of write requests responded to by this memory
system.physmem.num_writes::switch_cpus0.data            0                       # Number of write requests responded to by this memory
system.physmem.num_writes::switch_cpus1.dtb.walker            0                       # Number of write requests responded to by this memory
system.physmem.num_writes::switch_cpus1.itb.walker            0                       # Number of write requests responded to by this memory
system.physmem.num_writes::switch_cpus1.inst            0                       # Number of write requests responded to by this memory
system.physmem.num_writes::switch_cpus1.data            0                       # Number of write requests responded to by this memory
system.physmem.num_writes::cpu0.dtb.walker            0                       # Number of write requests responded to by this memory
system.physmem.num_writes::cpu0.itb.walker            0                       # Number of write requests responded to by this memory
system.physmem.num_writes::cpu0.inst                0                       # Number of write requests responded to by this memory
system.physmem.num_writes::cpu0.data                0                       # Number of write requests responded to by this memory
system.physmem.num_writes::cpu1.dtb.walker            0                       # Number of write requests responded to by this memory
system.physmem.num_writes::cpu1.itb.walker            0                       # Number of write requests responded to by this memory
system.physmem.num_writes::cpu1.inst                0                       # Number of write requests responded to by this memory
system.physmem.num_writes::cpu1.data                0                       # Number of write requests responded to by this memory
system.physmem.num_writes::total                 8000                       # Number of write requests responded to by this memory
system.physmem.bw_read::switch_cpus0.inst        14307                       # Total read bandwidth from this memory (bytes/s)
system.physmem.bw_read::switch_cpus0.data      5052688                       # Total read bandwidth from this memory (bytes/s)
system.physmem.bw_read::switch_cpus1.inst        14307                       # Total read bandwidth from this memory (bytes/s)
system.physmem.bw_read::switch_cpus1.data      3913604                       # Total read bandwidth from this memory (bytes/s)
system.physmem.bw_read::total                 8994907                       # Total read bandwidth from this memory (bytes/s)
system.physmem.bw_inst_read::switch_cpus0.inst        14307                       # Instruction read bandwidth from this memory (bytes/s)
system.physmem.bw_inst_read::switch_cpus1.inst        14307                       # Instruction read bandwidth from this memory (bytes/s)
system.physmem.bw_inst_read::total              28615                       # Instruction read bandwidth from this memory (bytes/s)
system.physmem.bw_write::writebacks           8804509                       # Write bandwidth from this memory (bytes/s)
system.physmem.bw_write::total                8804509                       # Write bandwidth from this memory (bytes/s)
system.physmem.bw_total::writebacks           8804509                       # Total bandwidth to/from this memory (bytes/s)
system.physmem.bw_total::switch_cpus0.inst        14307                       # Total bandwidth to/from this memory (bytes/s)
system.physmem.bw_total::switch_cpus0.data      5052688                       # Total bandwidth to/from this memory (bytes/s)
system.physmem.bw_total::switch_cpus1.inst        14307                       # Total bandwidth to/from this memory (bytes/s)
system.physmem.bw_total::switch_cpus1.data      3913604                       # Total bandwidth to/from this memory (bytes/s)
system.physmem.bw_total::total               17799416                       # Total bandwidth to/from this memory (bytes/s)
system.switch_cpus0.dtb.inst_hits                   0                       # ITB inst hits
system.switch_cpus0.dtb.inst_misses                 0                       # ITB inst misses
system.switch_cpus0.dtb.read_hits                   0                       # DTB read hits
system.switch_cpus0.dtb.read_misses                 0                       # DTB read misses
system.switch_cpus0.dtb.write_hits                  0                       # DTB write hits
system.switch_cpus0.dtb.write_misses                0                       # DTB write misses
system.switch_cpus0.dtb.flush_tlb                   0                       # Number of times complete TLB was flushed
system.switch_cpus0.dtb.flush_tlb_mva               0                       # Number of times TLB was flushed by MVA
system.switch_cpus0.dtb.flush_tlb_mva_asid            0                       # Number of times TLB was flushed by MVA & ASID
system.switch_cpus0.dtb.flush_tlb_asid              0                       # Number of times TLB was flushed by ASID
system.switch_cpus0.dtb.flush_entries               0                       # Number of entries that have been flushed from TLB
system.switch_cpus0.dtb.align_faults                0                       # Number of TLB faults due to alignment restrictions
system.switch_cpus0.dtb.prefetch_faults             0                       # Number of TLB faults due to prefetch
system.switch_cpus0.dtb.domain_faults               0                       # Number of TLB faults due to domain restrictions
system.switch_cpus0.dtb.perms_faults                0                       # Number of TLB faults due to permissions restrictions
system.switch_cpus0.dtb.read_accesses               0                       # DTB read accesses
system.switch_cpus0.dtb.write_accesses              0                       # DTB write accesses
system.switch_cpus0.dtb.inst_accesses               0                       # ITB inst accesses
system.switch_cpus0.dtb.hits                        0                       # DTB hits
system.switch_cpus0.dtb.misses                      0                       # DTB misses
system.switch_cpus0.dtb.accesses                    0                       # DTB accesses
system.switch_cpus0.itb.inst_hits                   0                       # ITB inst hits
system.switch_cpus0.itb.inst_misses                 0                       # ITB inst misses
system.switch_cpus0.itb.read_hits                   0                       # DTB read hits
system.switch_cpus0.itb.read_misses                 0                       # DTB read misses
system.switch_cpus0.itb.write_hits                  0                       # DTB write hits
system.switch_cpus0.itb.write_misses                0                       # DTB write misses
system.switch_cpus0.itb.flush_tlb                   0                       # Number of times complete TLB was flushed
system.switch_cpus0.itb.flush_tlb_mva               0                       # Number of times TLB was flushed by MVA
system.switch_cpus0.itb.flush_tlb_mva_asid            0                       # Number of times TLB was flushed by MVA & ASID
system.switch_cpus0.itb.flush_tlb_asid              0                       # Number of times TLB was flushed by ASID
system.switch_cpus0.itb.flush_entries               0                       # Number of entries that have been flushed from TLB
system.switch_cpus0.itb.align_faults                0                       # Number of TLB faults due to alignment restrictions
system.switch_cpus0.itb.prefetch_faults             0                       # Number of TLB faults due to prefetch
system.switch_cpus0.itb.domain_faults               0                       # Number of TLB faults due to domain restrictions
system.switch_cpus0.itb.perms_faults                0                       # Number of TLB faults due to permissions restrictions
system.switch_cpus0.itb.read_accesses               0                       # DTB read accesses
system.switch_cpus0.itb.write_accesses              0                       # DTB write accesses
system.switch_cpus0.itb.inst_accesses               0                       # ITB inst accesses
system.switch_cpus0.itb.hits                        0                       # DTB hits
system.switch_cpus0.itb.misses                      0                       # DTB misses
system.switch_cpus0.itb.accesses                    0                       # DTB accesses
system.cpu0.workload.num_syscalls                   0                       # Number of system calls
system.switch_cpus0.numCycles               278906572                       # number of cpu cycles simulated
system.switch_cpus0.numWorkItemsStarted             0                       # number of work items this cpu started
system.switch_cpus0.numWorkItemsCompleted            0                       # number of work items this cpu completed
system.switch_cpus0.BPredUnit.lookups        21079721                       # Number of BP lookups
system.switch_cpus0.BPredUnit.condPredicted     18716862                       # Number of conditional branches predicted
system.switch_cpus0.BPredUnit.condIncorrect      1831237                       # Number of conditional branches incorrect
system.switch_cpus0.BPredUnit.BTBLookups     11088161                       # Number of BTB lookups
system.switch_cpus0.BPredUnit.BTBHits        10789548                       # Number of BTB hits
system.switch_cpus0.BPredUnit.BTBCorrect            0                       # Number of correct BTB predictions (this stat may not work properly.
system.switch_cpus0.BPredUnit.usedRAS         1339701                       # Number of times the RAS was used to get a target.
system.switch_cpus0.BPredUnit.RASInCorrect        52687                       # Number of incorrect RAS predictions.
system.switch_cpus0.fetch.icacheStallCycles    227540089                       # Number of cycles fetch is stalled on an Icache miss
system.switch_cpus0.fetch.Insts             119383805                       # Number of instructions fetch has processed
system.switch_cpus0.fetch.Branches           21079721                       # Number of branches that fetch encountered
system.switch_cpus0.fetch.predictedBranches     12129249                       # Number of branches that fetch has predicted taken
system.switch_cpus0.fetch.Cycles             24139153                       # Number of cycles fetch has run and was not squashing or blocked
system.switch_cpus0.fetch.SquashCycles        5574398                       # Number of cycles fetch has spent squashing
system.switch_cpus0.fetch.BlockedCycles       1892743                       # Number of cycles fetch has spent blocked
system.switch_cpus0.fetch.PendingTrapStallCycles           23                       # Number of stall cycles due to pending traps
system.switch_cpus0.fetch.CacheLines         13929956                       # Number of cache lines fetched
system.switch_cpus0.fetch.IcacheSquashes      1825138                       # Number of outstanding Icache misses that were squashed
system.switch_cpus0.fetch.rateDist::samples    257305709                       # Number of instructions fetched each cycle (Total)
system.switch_cpus0.fetch.rateDist::mean     0.522656                       # Number of instructions fetched each cycle (Total)
system.switch_cpus0.fetch.rateDist::stdev     1.772670                       # Number of instructions fetched each cycle (Total)
system.switch_cpus0.fetch.rateDist::underflows            0      0.00%      0.00% # Number of instructions fetched each cycle (Total)
system.switch_cpus0.fetch.rateDist::0       233166556     90.62%     90.62% # Number of instructions fetched each cycle (Total)
system.switch_cpus0.fetch.rateDist::1         1097631      0.43%     91.05% # Number of instructions fetched each cycle (Total)
system.switch_cpus0.fetch.rateDist::2         2038379      0.79%     91.84% # Number of instructions fetched each cycle (Total)
system.switch_cpus0.fetch.rateDist::3         1765900      0.69%     92.52% # Number of instructions fetched each cycle (Total)
system.switch_cpus0.fetch.rateDist::4         3565284      1.39%     93.91% # Number of instructions fetched each cycle (Total)
system.switch_cpus0.fetch.rateDist::5         4325601      1.68%     95.59% # Number of instructions fetched each cycle (Total)
system.switch_cpus0.fetch.rateDist::6         1042282      0.41%     96.00% # Number of instructions fetched each cycle (Total)
system.switch_cpus0.fetch.rateDist::7          565141      0.22%     96.22% # Number of instructions fetched each cycle (Total)
system.switch_cpus0.fetch.rateDist::8         9738935      3.78%    100.00% # Number of instructions fetched each cycle (Total)
system.switch_cpus0.fetch.rateDist::overflows            0      0.00%    100.00% # Number of instructions fetched each cycle (Total)
system.switch_cpus0.fetch.rateDist::min_value            0                       # Number of instructions fetched each cycle (Total)
system.switch_cpus0.fetch.rateDist::max_value            8                       # Number of instructions fetched each cycle (Total)
system.switch_cpus0.fetch.rateDist::total    257305709                       # Number of instructions fetched each cycle (Total)
system.switch_cpus0.fetch.branchRate         0.075580                       # Number of branch fetches per cycle
system.switch_cpus0.fetch.rate               0.428042                       # Number of inst fetches per cycle
system.switch_cpus0.decode.IdleCycles       226180392                       # Number of cycles decode is idle
system.switch_cpus0.decode.BlockedCycles      3270542                       # Number of cycles decode is blocked
system.switch_cpus0.decode.RunCycles         24100841                       # Number of cycles decode is running
system.switch_cpus0.decode.UnblockCycles        25063                       # Number of cycles decode is unblocking
system.switch_cpus0.decode.SquashCycles       3728870                       # Number of cycles decode is squashing
system.switch_cpus0.decode.BranchResolved      2060256                       # Number of times decode resolved a branch
system.switch_cpus0.decode.BranchMispred         4831                       # Number of times decode detected a branch misprediction
system.switch_cpus0.decode.DecodedInsts     134400356                       # Number of instructions handled by decode
system.switch_cpus0.decode.SquashedInsts         1335                       # Number of squashed instructions handled by decode
system.switch_cpus0.rename.SquashCycles       3728870                       # Number of cycles rename is squashing
system.switch_cpus0.rename.IdleCycles       226436839                       # Number of cycles rename is idle
system.switch_cpus0.rename.BlockCycles        1318589                       # Number of cycles rename is blocking
system.switch_cpus0.rename.serializeStallCycles      1244479                       # count of cycles rename stalled for serializing inst
system.switch_cpus0.rename.RunCycles         23854680                       # Number of cycles rename is running
system.switch_cpus0.rename.UnblockCycles       722250                       # Number of cycles rename is unblocking
system.switch_cpus0.rename.RenamedInsts     134317654                       # Number of instructions processed by rename
system.switch_cpus0.rename.ROBFullEvents            5                       # Number of times rename has blocked due to ROB full
system.switch_cpus0.rename.IQFullEvents         87965                       # Number of times rename has blocked due to IQ full
system.switch_cpus0.rename.LSQFullEvents       401207                       # Number of times rename has blocked due to LSQ full
system.switch_cpus0.rename.RenamedOperands    177330938                       # Number of destination operands rename has renamed
system.switch_cpus0.rename.RenameLookups    607314993                       # Number of register rename lookups that rename has made
system.switch_cpus0.rename.int_rename_lookups    607314993                       # Number of integer rename lookups
system.switch_cpus0.rename.CommittedMaps    146711191                       # Number of HB maps that are committed
system.switch_cpus0.rename.UndoneMaps        30619739                       # Number of HB maps that are undone due to squashing
system.switch_cpus0.rename.serializingInsts        18448                       # count of serializing insts renamed
system.switch_cpus0.rename.tempSerializingInsts         9228                       # count of temporary serializing insts renamed
system.switch_cpus0.rename.skidInsts          2394136                       # count of insts added to the skid buffer
system.switch_cpus0.memDep0.insertedLoads     23385775                       # Number of loads inserted to the mem dependence unit.
system.switch_cpus0.memDep0.insertedStores      4140077                       # Number of stores inserted to the mem dependence unit.
system.switch_cpus0.memDep0.conflictingLoads        73873                       # Number of conflicting loads.
system.switch_cpus0.memDep0.conflictingStores       926419                       # Number of conflicting stores.
system.switch_cpus0.iq.iqInstsAdded         133815322                       # Number of instructions added to the IQ (excludes non-spec)
system.switch_cpus0.iq.iqNonSpecInstsAdded        18448                       # Number of non-speculative instructions added to the IQ
system.switch_cpus0.iq.iqInstsIssued        127083894                       # Number of instructions issued
system.switch_cpus0.iq.iqSquashedInstsIssued        78974                       # Number of squashed instructions issued
system.switch_cpus0.iq.iqSquashedInstsExamined     20100652                       # Number of squashed instructions iterated over during squash; mainly for profiling
system.switch_cpus0.iq.iqSquashedOperandsExamined     42525150                       # Number of squashed operands that are examined and possibly removed from graph
system.switch_cpus0.iq.iqSquashedNonSpecRemoved            8                       # Number of squashed non-spec instructions that were removed
system.switch_cpus0.iq.issued_per_cycle::samples    257305709                       # Number of insts issued each cycle
system.switch_cpus0.iq.issued_per_cycle::mean     0.493902                       # Number of insts issued each cycle
system.switch_cpus0.iq.issued_per_cycle::stdev     1.177117                       # Number of insts issued each cycle
system.switch_cpus0.iq.issued_per_cycle::underflows            0      0.00%      0.00% # Number of insts issued each cycle
system.switch_cpus0.iq.issued_per_cycle::0    202957673     78.88%     78.88% # Number of insts issued each cycle
system.switch_cpus0.iq.issued_per_cycle::1     22763197      8.85%     87.72% # Number of insts issued each cycle
system.switch_cpus0.iq.issued_per_cycle::2     11657392      4.53%     92.26% # Number of insts issued each cycle
system.switch_cpus0.iq.issued_per_cycle::3      6758459      2.63%     94.88% # Number of insts issued each cycle
system.switch_cpus0.iq.issued_per_cycle::4      7503777      2.92%     97.80% # Number of insts issued each cycle
system.switch_cpus0.iq.issued_per_cycle::5      3758487      1.46%     99.26% # Number of insts issued each cycle
system.switch_cpus0.iq.issued_per_cycle::6      1490632      0.58%     99.84% # Number of insts issued each cycle
system.switch_cpus0.iq.issued_per_cycle::7       349535      0.14%     99.97% # Number of insts issued each cycle
system.switch_cpus0.iq.issued_per_cycle::8        66557      0.03%    100.00% # Number of insts issued each cycle
system.switch_cpus0.iq.issued_per_cycle::overflows            0      0.00%    100.00% # Number of insts issued each cycle
system.switch_cpus0.iq.issued_per_cycle::min_value            0                       # Number of insts issued each cycle
system.switch_cpus0.iq.issued_per_cycle::max_value            8                       # Number of insts issued each cycle
system.switch_cpus0.iq.issued_per_cycle::total    257305709                       # Number of insts issued each cycle
system.switch_cpus0.iq.fu_full::No_OpClass            0      0.00%      0.00% # attempts to use FU when none available
system.switch_cpus0.iq.fu_full::IntAlu         232995     48.30%     48.30% # attempts to use FU when none available
system.switch_cpus0.iq.fu_full::IntMult             0      0.00%     48.30% # attempts to use FU when none available
system.switch_cpus0.iq.fu_full::IntDiv              0      0.00%     48.30% # attempts to use FU when none available
system.switch_cpus0.iq.fu_full::FloatAdd            0      0.00%     48.30% # attempts to use FU when none available
system.switch_cpus0.iq.fu_full::FloatCmp            0      0.00%     48.30% # attempts to use FU when none available
system.switch_cpus0.iq.fu_full::FloatCvt            0      0.00%     48.30% # attempts to use FU when none available
system.switch_cpus0.iq.fu_full::FloatMult            0      0.00%     48.30% # attempts to use FU when none available
system.switch_cpus0.iq.fu_full::FloatDiv            0      0.00%     48.30% # attempts to use FU when none available
system.switch_cpus0.iq.fu_full::FloatSqrt            0      0.00%     48.30% # attempts to use FU when none available
system.switch_cpus0.iq.fu_full::SimdAdd             0      0.00%     48.30% # attempts to use FU when none available
system.switch_cpus0.iq.fu_full::SimdAddAcc            0      0.00%     48.30% # attempts to use FU when none available
system.switch_cpus0.iq.fu_full::SimdAlu             0      0.00%     48.30% # attempts to use FU when none available
system.switch_cpus0.iq.fu_full::SimdCmp             0      0.00%     48.30% # attempts to use FU when none available
system.switch_cpus0.iq.fu_full::SimdCvt             0      0.00%     48.30% # attempts to use FU when none available
system.switch_cpus0.iq.fu_full::SimdMisc            0      0.00%     48.30% # attempts to use FU when none available
system.switch_cpus0.iq.fu_full::SimdMult            0      0.00%     48.30% # attempts to use FU when none available
system.switch_cpus0.iq.fu_full::SimdMultAcc            0      0.00%     48.30% # attempts to use FU when none available
system.switch_cpus0.iq.fu_full::SimdShift            0      0.00%     48.30% # attempts to use FU when none available
system.switch_cpus0.iq.fu_full::SimdShiftAcc            0      0.00%     48.30% # attempts to use FU when none available
system.switch_cpus0.iq.fu_full::SimdSqrt            0      0.00%     48.30% # attempts to use FU when none available
system.switch_cpus0.iq.fu_full::SimdFloatAdd            0      0.00%     48.30% # attempts to use FU when none available
system.switch_cpus0.iq.fu_full::SimdFloatAlu            0      0.00%     48.30% # attempts to use FU when none available
system.switch_cpus0.iq.fu_full::SimdFloatCmp            0      0.00%     48.30% # attempts to use FU when none available
system.switch_cpus0.iq.fu_full::SimdFloatCvt            0      0.00%     48.30% # attempts to use FU when none available
system.switch_cpus0.iq.fu_full::SimdFloatDiv            0      0.00%     48.30% # attempts to use FU when none available
system.switch_cpus0.iq.fu_full::SimdFloatMisc            0      0.00%     48.30% # attempts to use FU when none available
system.switch_cpus0.iq.fu_full::SimdFloatMult            0      0.00%     48.30% # attempts to use FU when none available
system.switch_cpus0.iq.fu_full::SimdFloatMultAcc            0      0.00%     48.30% # attempts to use FU when none available
system.switch_cpus0.iq.fu_full::SimdFloatSqrt            0      0.00%     48.30% # attempts to use FU when none available
system.switch_cpus0.iq.fu_full::MemRead        174499     36.17%     84.47% # attempts to use FU when none available
system.switch_cpus0.iq.fu_full::MemWrite        74941     15.53%    100.00% # attempts to use FU when none available
system.switch_cpus0.iq.fu_full::IprAccess            0      0.00%    100.00% # attempts to use FU when none available
system.switch_cpus0.iq.fu_full::InstPrefetch            0      0.00%    100.00% # attempts to use FU when none available
system.switch_cpus0.iq.FU_type_0::No_OpClass            0      0.00%      0.00% # Type of FU issued
system.switch_cpus0.iq.FU_type_0::IntAlu     99754680     78.50%     78.50% # Type of FU issued
system.switch_cpus0.iq.FU_type_0::IntMult      1005944      0.79%     79.29% # Type of FU issued
system.switch_cpus0.iq.FU_type_0::IntDiv            0      0.00%     79.29% # Type of FU issued
system.switch_cpus0.iq.FU_type_0::FloatAdd            0      0.00%     79.29% # Type of FU issued
system.switch_cpus0.iq.FU_type_0::FloatCmp            0      0.00%     79.29% # Type of FU issued
system.switch_cpus0.iq.FU_type_0::FloatCvt            0      0.00%     79.29% # Type of FU issued
system.switch_cpus0.iq.FU_type_0::FloatMult            0      0.00%     79.29% # Type of FU issued
system.switch_cpus0.iq.FU_type_0::FloatDiv            0      0.00%     79.29% # Type of FU issued
system.switch_cpus0.iq.FU_type_0::FloatSqrt            0      0.00%     79.29% # Type of FU issued
system.switch_cpus0.iq.FU_type_0::SimdAdd            0      0.00%     79.29% # Type of FU issued
system.switch_cpus0.iq.FU_type_0::SimdAddAcc            0      0.00%     79.29% # Type of FU issued
system.switch_cpus0.iq.FU_type_0::SimdAlu            0      0.00%     79.29% # Type of FU issued
system.switch_cpus0.iq.FU_type_0::SimdCmp            0      0.00%     79.29% # Type of FU issued
system.switch_cpus0.iq.FU_type_0::SimdCvt            0      0.00%     79.29% # Type of FU issued
system.switch_cpus0.iq.FU_type_0::SimdMisc            0      0.00%     79.29% # Type of FU issued
system.switch_cpus0.iq.FU_type_0::SimdMult            0      0.00%     79.29% # Type of FU issued
system.switch_cpus0.iq.FU_type_0::SimdMultAcc            0      0.00%     79.29% # Type of FU issued
system.switch_cpus0.iq.FU_type_0::SimdShift            0      0.00%     79.29% # Type of FU issued
system.switch_cpus0.iq.FU_type_0::SimdShiftAcc            0      0.00%     79.29% # Type of FU issued
system.switch_cpus0.iq.FU_type_0::SimdSqrt            0      0.00%     79.29% # Type of FU issued
system.switch_cpus0.iq.FU_type_0::SimdFloatAdd            0      0.00%     79.29% # Type of FU issued
system.switch_cpus0.iq.FU_type_0::SimdFloatAlu            0      0.00%     79.29% # Type of FU issued
system.switch_cpus0.iq.FU_type_0::SimdFloatCmp            0      0.00%     79.29% # Type of FU issued
system.switch_cpus0.iq.FU_type_0::SimdFloatCvt            0      0.00%     79.29% # Type of FU issued
system.switch_cpus0.iq.FU_type_0::SimdFloatDiv            0      0.00%     79.29% # Type of FU issued
system.switch_cpus0.iq.FU_type_0::SimdFloatMisc         9220      0.01%     79.29% # Type of FU issued
system.switch_cpus0.iq.FU_type_0::SimdFloatMult            0      0.00%     79.29% # Type of FU issued
system.switch_cpus0.iq.FU_type_0::SimdFloatMultAcc            0      0.00%     79.29% # Type of FU issued
system.switch_cpus0.iq.FU_type_0::SimdFloatSqrt            0      0.00%     79.29% # Type of FU issued
system.switch_cpus0.iq.FU_type_0::MemRead     22194519     17.46%     96.76% # Type of FU issued
system.switch_cpus0.iq.FU_type_0::MemWrite      4119531      3.24%    100.00% # Type of FU issued
system.switch_cpus0.iq.FU_type_0::IprAccess            0      0.00%    100.00% # Type of FU issued
system.switch_cpus0.iq.FU_type_0::InstPrefetch            0      0.00%    100.00% # Type of FU issued
system.switch_cpus0.iq.FU_type_0::total     127083894                       # Type of FU issued
system.switch_cpus0.iq.rate                  0.455650                       # Inst issue rate
system.switch_cpus0.iq.fu_busy_cnt             482435                       # FU busy when requested
system.switch_cpus0.iq.fu_busy_rate          0.003796                       # FU busy rate (busy events/executed inst)
system.switch_cpus0.iq.int_inst_queue_reads    512034906                       # Number of integer instruction queue reads
system.switch_cpus0.iq.int_inst_queue_writes    153934723                       # Number of integer instruction queue writes
system.switch_cpus0.iq.int_inst_queue_wakeup_accesses    124128033                       # Number of integer instruction queue wakeup accesses
system.switch_cpus0.iq.fp_inst_queue_reads            0                       # Number of floating instruction queue reads
system.switch_cpus0.iq.fp_inst_queue_writes            0                       # Number of floating instruction queue writes
system.switch_cpus0.iq.fp_inst_queue_wakeup_accesses            0                       # Number of floating instruction queue wakeup accesses
system.switch_cpus0.iq.int_alu_accesses     127566329                       # Number of integer alu accesses
system.switch_cpus0.iq.fp_alu_accesses              0                       # Number of floating point alu accesses
system.switch_cpus0.iew.lsq.thread0.forwLoads       224032                       # Number of loads that had data forwarded from stores
system.switch_cpus0.iew.lsq.thread0.invAddrLoads            0                       # Number of loads ignored due to an invalid address
system.switch_cpus0.iew.lsq.thread0.squashedLoads      3859966                       # Number of loads squashed
system.switch_cpus0.iew.lsq.thread0.ignoredResponses          230                       # Number of memory responses ignored because the instruction is squashed
system.switch_cpus0.iew.lsq.thread0.memOrderViolation          301                       # Number of memory ordering violations
system.switch_cpus0.iew.lsq.thread0.squashedStores       111169                       # Number of stores squashed
system.switch_cpus0.iew.lsq.thread0.invAddrSwpfs            0                       # Number of software prefetches ignored due to an invalid address
system.switch_cpus0.iew.lsq.thread0.blockedLoads            0                       # Number of blocked loads due to partial load-store forwarding
system.switch_cpus0.iew.lsq.thread0.rescheduledLoads            0                       # Number of loads that were rescheduled
system.switch_cpus0.iew.lsq.thread0.cacheBlocked            0                       # Number of times an access to memory failed due to the cache being blocked
system.switch_cpus0.iew.iewIdleCycles               0                       # Number of cycles IEW is idle
system.switch_cpus0.iew.iewSquashCycles       3728870                       # Number of cycles IEW is squashing
system.switch_cpus0.iew.iewBlockCycles         895302                       # Number of cycles IEW is blocking
system.switch_cpus0.iew.iewUnblockCycles        57267                       # Number of cycles IEW is unblocking
system.switch_cpus0.iew.iewDispatchedInsts    133833771                       # Number of instructions dispatched to IQ
system.switch_cpus0.iew.iewDispSquashedInsts         5748                       # Number of squashed instructions skipped by dispatch
system.switch_cpus0.iew.iewDispLoadInsts     23385775                       # Number of dispatched load instructions
system.switch_cpus0.iew.iewDispStoreInsts      4140077                       # Number of dispatched store instructions
system.switch_cpus0.iew.iewDispNonSpecInsts         9228                       # Number of dispatched non-speculative instructions
system.switch_cpus0.iew.iewIQFullEvents         37232                       # Number of times the IQ has become full, causing a stall
system.switch_cpus0.iew.iewLSQFullEvents          394                       # Number of times the LSQ has become full, causing a stall
system.switch_cpus0.iew.memOrderViolationEvents          301                       # Number of memory order violations
system.switch_cpus0.iew.predictedTakenIncorrect       822789                       # Number of branches that were predicted taken incorrectly
system.switch_cpus0.iew.predictedNotTakenIncorrect      1103015                       # Number of branches that were predicted not taken incorrectly
system.switch_cpus0.iew.branchMispredicts      1925804                       # Number of branch mispredicts detected at execute
system.switch_cpus0.iew.iewExecutedInsts    125966960                       # Number of executed instructions
system.switch_cpus0.iew.iewExecLoadInsts     21920810                       # Number of load instructions executed
system.switch_cpus0.iew.iewExecSquashedInsts      1116934                       # Number of squashed instructions skipped in execute
system.switch_cpus0.iew.exec_swp                    0                       # number of swp insts executed
system.switch_cpus0.iew.exec_nop                    1                       # number of nop insts executed
system.switch_cpus0.iew.exec_refs            26040285                       # number of memory reference insts executed
system.switch_cpus0.iew.exec_branches        19466039                       # Number of branches executed
system.switch_cpus0.iew.exec_stores           4119475                       # Number of stores executed
system.switch_cpus0.iew.exec_rate            0.451646                       # Inst execution rate
system.switch_cpus0.iew.wb_sent             124163841                       # cumulative count of insts sent to commit
system.switch_cpus0.iew.wb_count            124128033                       # cumulative count of insts written-back
system.switch_cpus0.iew.wb_producers         71009402                       # num instructions producing a value
system.switch_cpus0.iew.wb_consumers        163896559                       # num instructions consuming a value
system.switch_cpus0.iew.wb_penalized                0                       # number of instrctions required to write to 'other' IQ
system.switch_cpus0.iew.wb_rate              0.445052                       # insts written-back per cycle
system.switch_cpus0.iew.wb_fanout            0.433257                       # average fanout of values written-back
system.switch_cpus0.iew.wb_penalized_rate            0                       # fraction of instructions written-back that wrote to 'other' IQ
system.switch_cpus0.commit.commitCommittedInsts    100000007                       # The number of committed instructions
system.switch_cpus0.commit.commitCommittedOps    112649212                       # The number of committed instructions
system.switch_cpus0.commit.commitSquashedInsts     21186584                       # The number of squashed insts skipped by commit
system.switch_cpus0.commit.commitNonSpecStalls        18440                       # The number of times commit has been forced to stall to communicate backwards
system.switch_cpus0.commit.branchMispredicts      1835636                       # The number of times a branch was mispredicted
system.switch_cpus0.commit.committed_per_cycle::samples    253576839                       # Number of insts commited each cycle
system.switch_cpus0.commit.committed_per_cycle::mean     0.444241                       # Number of insts commited each cycle
system.switch_cpus0.commit.committed_per_cycle::stdev     1.294189                       # Number of insts commited each cycle
system.switch_cpus0.commit.committed_per_cycle::underflows            0      0.00%      0.00% # Number of insts commited each cycle
system.switch_cpus0.commit.committed_per_cycle::0    211350437     83.35%     83.35% # Number of insts commited each cycle
system.switch_cpus0.commit.committed_per_cycle::1     15999491      6.31%     89.66% # Number of insts commited each cycle
system.switch_cpus0.commit.committed_per_cycle::2     12517374      4.94%     94.59% # Number of insts commited each cycle
system.switch_cpus0.commit.committed_per_cycle::3      2471876      0.97%     95.57% # Number of insts commited each cycle
system.switch_cpus0.commit.committed_per_cycle::4      3114215      1.23%     96.80% # Number of insts commited each cycle
system.switch_cpus0.commit.committed_per_cycle::5      1054057      0.42%     97.21% # Number of insts commited each cycle
system.switch_cpus0.commit.committed_per_cycle::6      4536871      1.79%     99.00% # Number of insts commited each cycle
system.switch_cpus0.commit.committed_per_cycle::7      1009170      0.40%     99.40% # Number of insts commited each cycle
system.switch_cpus0.commit.committed_per_cycle::8      1523348      0.60%    100.00% # Number of insts commited each cycle
system.switch_cpus0.commit.committed_per_cycle::overflows            0      0.00%    100.00% # Number of insts commited each cycle
system.switch_cpus0.commit.committed_per_cycle::min_value            0                       # Number of insts commited each cycle
system.switch_cpus0.commit.committed_per_cycle::max_value            8                       # Number of insts commited each cycle
system.switch_cpus0.commit.committed_per_cycle::total    253576839                       # Number of insts commited each cycle
system.switch_cpus0.commit.committedInsts    100000007                       # Number of instructions committed
system.switch_cpus0.commit.committedOps     112649212                       # Number of ops (including micro ops) committed
system.switch_cpus0.commit.swp_count                0                       # Number of s/w prefetches committed
system.switch_cpus0.commit.refs              23554717                       # Number of memory references committed
system.switch_cpus0.commit.loads             19525809                       # Number of loads committed
system.switch_cpus0.commit.membars               9220                       # Number of memory barriers committed
system.switch_cpus0.commit.branches          17774062                       # Number of branches committed
system.switch_cpus0.commit.fp_insts                 0                       # Number of committed floating point instructions.
system.switch_cpus0.commit.int_insts         97983637                       # Number of committed integer instructions.
system.switch_cpus0.commit.function_calls      1421934                       # Number of function calls committed.
system.switch_cpus0.commit.bw_lim_events      1523348                       # number cycles where commit BW limit reached
system.switch_cpus0.commit.bw_limited               0                       # number of insts not committed due to BW limits
system.switch_cpus0.rob.rob_reads           385889287                       # The number of ROB reads
system.switch_cpus0.rob.rob_writes          271400540                       # The number of ROB writes
system.switch_cpus0.timesIdled                6005669                       # Number of times that the entire CPU went into an idle state and unscheduled itself
system.switch_cpus0.idleCycles               21600863                       # Total number of cycles that the CPU has spent unscheduled due to idling
system.switch_cpus0.committedInsts          100000007                       # Number of Instructions Simulated
system.switch_cpus0.committedOps            112649212                       # Number of Ops (including micro ops) Simulated
system.switch_cpus0.committedInsts_total    100000007                       # Number of Instructions Simulated
system.switch_cpus0.cpi                      2.789066                       # CPI: Cycles Per Instruction
system.switch_cpus0.cpi_total                2.789066                       # CPI: Total CPI of All Threads
system.switch_cpus0.ipc                      0.358543                       # IPC: Instructions Per Cycle
system.switch_cpus0.ipc_total                0.358543                       # IPC: Total IPC of All Threads
system.switch_cpus0.int_regfile_reads       583296431                       # number of integer regfile reads
system.switch_cpus0.int_regfile_writes      161901279                       # number of integer regfile writes
system.switch_cpus0.misc_regfile_reads      142179827                       # number of misc regfile reads
system.switch_cpus0.misc_regfile_writes         18440                       # number of misc regfile writes
system.switch_cpus1.dtb.inst_hits                   0                       # ITB inst hits
system.switch_cpus1.dtb.inst_misses                 0                       # ITB inst misses
system.switch_cpus1.dtb.read_hits                   0                       # DTB read hits
system.switch_cpus1.dtb.read_misses                 0                       # DTB read misses
system.switch_cpus1.dtb.write_hits                  0                       # DTB write hits
system.switch_cpus1.dtb.write_misses                0                       # DTB write misses
system.switch_cpus1.dtb.flush_tlb                   0                       # Number of times complete TLB was flushed
system.switch_cpus1.dtb.flush_tlb_mva               0                       # Number of times TLB was flushed by MVA
system.switch_cpus1.dtb.flush_tlb_mva_asid            0                       # Number of times TLB was flushed by MVA & ASID
system.switch_cpus1.dtb.flush_tlb_asid              0                       # Number of times TLB was flushed by ASID
system.switch_cpus1.dtb.flush_entries               0                       # Number of entries that have been flushed from TLB
system.switch_cpus1.dtb.align_faults                0                       # Number of TLB faults due to alignment restrictions
system.switch_cpus1.dtb.prefetch_faults             0                       # Number of TLB faults due to prefetch
system.switch_cpus1.dtb.domain_faults               0                       # Number of TLB faults due to domain restrictions
system.switch_cpus1.dtb.perms_faults                0                       # Number of TLB faults due to permissions restrictions
system.switch_cpus1.dtb.read_accesses               0                       # DTB read accesses
system.switch_cpus1.dtb.write_accesses              0                       # DTB write accesses
system.switch_cpus1.dtb.inst_accesses               0                       # ITB inst accesses
system.switch_cpus1.dtb.hits                        0                       # DTB hits
system.switch_cpus1.dtb.misses                      0                       # DTB misses
system.switch_cpus1.dtb.accesses                    0                       # DTB accesses
system.switch_cpus1.itb.inst_hits                   0                       # ITB inst hits
system.switch_cpus1.itb.inst_misses                 0                       # ITB inst misses
system.switch_cpus1.itb.read_hits                   0                       # DTB read hits
system.switch_cpus1.itb.read_misses                 0                       # DTB read misses
system.switch_cpus1.itb.write_hits                  0                       # DTB write hits
system.switch_cpus1.itb.write_misses                0                       # DTB write misses
system.switch_cpus1.itb.flush_tlb                   0                       # Number of times complete TLB was flushed
system.switch_cpus1.itb.flush_tlb_mva               0                       # Number of times TLB was flushed by MVA
system.switch_cpus1.itb.flush_tlb_mva_asid            0                       # Number of times TLB was flushed by MVA & ASID
system.switch_cpus1.itb.flush_tlb_asid              0                       # Number of times TLB was flushed by ASID
system.switch_cpus1.itb.flush_entries               0                       # Number of entries that have been flushed from TLB
system.switch_cpus1.itb.align_faults                0                       # Number of TLB faults due to alignment restrictions
system.switch_cpus1.itb.prefetch_faults             0                       # Number of TLB faults due to prefetch
system.switch_cpus1.itb.domain_faults               0                       # Number of TLB faults due to domain restrictions
system.switch_cpus1.itb.perms_faults                0                       # Number of TLB faults due to permissions restrictions
system.switch_cpus1.itb.read_accesses               0                       # DTB read accesses
system.switch_cpus1.itb.write_accesses              0                       # DTB write accesses
system.switch_cpus1.itb.inst_accesses               0                       # ITB inst accesses
system.switch_cpus1.itb.hits                        0                       # DTB hits
system.switch_cpus1.itb.misses                      0                       # DTB misses
system.switch_cpus1.itb.accesses                    0                       # DTB accesses
system.cpu1.workload.num_syscalls                   0                       # Number of system calls
system.switch_cpus1.numCycles               278906572                       # number of cpu cycles simulated
system.switch_cpus1.numWorkItemsStarted             0                       # number of work items this cpu started
system.switch_cpus1.numWorkItemsCompleted            0                       # number of work items this cpu completed
system.switch_cpus1.BPredUnit.lookups        23087465                       # Number of BP lookups
system.switch_cpus1.BPredUnit.condPredicted     18873025                       # Number of conditional branches predicted
system.switch_cpus1.BPredUnit.condIncorrect      2246258                       # Number of conditional branches incorrect
system.switch_cpus1.BPredUnit.BTBLookups      9476385                       # Number of BTB lookups
system.switch_cpus1.BPredUnit.BTBHits         9063856                       # Number of BTB hits
system.switch_cpus1.BPredUnit.BTBCorrect            0                       # Number of correct BTB predictions (this stat may not work properly.
system.switch_cpus1.BPredUnit.usedRAS         2367977                       # Number of times the RAS was used to get a target.
system.switch_cpus1.BPredUnit.RASInCorrect       102167                       # Number of incorrect RAS predictions.
system.switch_cpus1.fetch.icacheStallCycles    222383834                       # Number of cycles fetch is stalled on an Icache miss
system.switch_cpus1.fetch.Insts             129723011                       # Number of instructions fetch has processed
system.switch_cpus1.fetch.Branches           23087465                       # Number of branches that fetch encountered
system.switch_cpus1.fetch.predictedBranches     11431833                       # Number of branches that fetch has predicted taken
system.switch_cpus1.fetch.Cycles             27023750                       # Number of cycles fetch has run and was not squashing or blocked
system.switch_cpus1.fetch.SquashCycles        6232911                       # Number of cycles fetch has spent squashing
system.switch_cpus1.fetch.BlockedCycles       4391786                       # Number of cycles fetch has spent blocked
system.switch_cpus1.fetch.PendingTrapStallCycles            6                       # Number of stall cycles due to pending traps
system.switch_cpus1.fetch.CacheLines         13620460                       # Number of cache lines fetched
system.switch_cpus1.fetch.IcacheSquashes      2247886                       # Number of outstanding Icache misses that were squashed
system.switch_cpus1.fetch.rateDist::samples    257748498                       # Number of instructions fetched each cycle (Total)
system.switch_cpus1.fetch.rateDist::mean     0.617142                       # Number of instructions fetched each cycle (Total)
system.switch_cpus1.fetch.rateDist::stdev     1.962130                       # Number of instructions fetched each cycle (Total)
system.switch_cpus1.fetch.rateDist::underflows            0      0.00%      0.00% # Number of instructions fetched each cycle (Total)
system.switch_cpus1.fetch.rateDist::0       230724748     89.52%     89.52% # Number of instructions fetched each cycle (Total)
system.switch_cpus1.fetch.rateDist::1         1297384      0.50%     90.02% # Number of instructions fetched each cycle (Total)
system.switch_cpus1.fetch.rateDist::2         1977697      0.77%     90.79% # Number of instructions fetched each cycle (Total)
system.switch_cpus1.fetch.rateDist::3         2705089      1.05%     91.84% # Number of instructions fetched each cycle (Total)
system.switch_cpus1.fetch.rateDist::4         2775730      1.08%     92.91% # Number of instructions fetched each cycle (Total)
system.switch_cpus1.fetch.rateDist::5         2322395      0.90%     93.81% # Number of instructions fetched each cycle (Total)
system.switch_cpus1.fetch.rateDist::6         1320185      0.51%     94.33% # Number of instructions fetched each cycle (Total)
system.switch_cpus1.fetch.rateDist::7         1938809      0.75%     95.08% # Number of instructions fetched each cycle (Total)
system.switch_cpus1.fetch.rateDist::8        12686461      4.92%    100.00% # Number of instructions fetched each cycle (Total)
system.switch_cpus1.fetch.rateDist::overflows            0      0.00%    100.00% # Number of instructions fetched each cycle (Total)
system.switch_cpus1.fetch.rateDist::min_value            0                       # Number of instructions fetched each cycle (Total)
system.switch_cpus1.fetch.rateDist::max_value            8                       # Number of instructions fetched each cycle (Total)
system.switch_cpus1.fetch.rateDist::total    257748498                       # Number of instructions fetched each cycle (Total)
system.switch_cpus1.fetch.branchRate         0.082778                       # Number of branch fetches per cycle
system.switch_cpus1.fetch.rate               0.465113                       # Number of inst fetches per cycle
system.switch_cpus1.decode.IdleCycles       219843368                       # Number of cycles decode is idle
system.switch_cpus1.decode.BlockedCycles      6952920                       # Number of cycles decode is blocked
system.switch_cpus1.decode.RunCycles         26952455                       # Number of cycles decode is running
system.switch_cpus1.decode.UnblockCycles        50862                       # Number of cycles decode is unblocking
system.switch_cpus1.decode.SquashCycles       3948890                       # Number of cycles decode is squashing
system.switch_cpus1.decode.BranchResolved      3813064                       # Number of times decode resolved a branch
system.switch_cpus1.decode.BranchMispred          233                       # Number of times decode detected a branch misprediction
system.switch_cpus1.decode.DecodedInsts     158937900                       # Number of instructions handled by decode
system.switch_cpus1.decode.SquashedInsts         1295                       # Number of squashed instructions handled by decode
system.switch_cpus1.rename.SquashCycles       3948890                       # Number of cycles rename is squashing
system.switch_cpus1.rename.IdleCycles       220464836                       # Number of cycles rename is idle
system.switch_cpus1.rename.BlockCycles        1474181                       # Number of cycles rename is blocking
system.switch_cpus1.rename.serializeStallCycles      3911774                       # count of cycles rename stalled for serializing inst
system.switch_cpus1.rename.RunCycles         26392409                       # Number of cycles rename is running
system.switch_cpus1.rename.UnblockCycles      1556405                       # Number of cycles rename is unblocking
system.switch_cpus1.rename.RenamedInsts     158838921                       # Number of instructions processed by rename
system.switch_cpus1.rename.ROBFullEvents         1187                       # Number of times rename has blocked due to ROB full
system.switch_cpus1.rename.IQFullEvents        351867                       # Number of times rename has blocked due to IQ full
system.switch_cpus1.rename.LSQFullEvents       621913                       # Number of times rename has blocked due to LSQ full
system.switch_cpus1.rename.FullRegisterEvents          982                       # Number of times there has been no free registers
system.switch_cpus1.rename.RenamedOperands    220730667                       # Number of destination operands rename has renamed
system.switch_cpus1.rename.RenameLookups    739259751                       # Number of register rename lookups that rename has made
system.switch_cpus1.rename.int_rename_lookups    739259751                       # Number of integer rename lookups
system.switch_cpus1.rename.CommittedMaps    190823866                       # Number of HB maps that are committed
system.switch_cpus1.rename.UndoneMaps        29906771                       # Number of HB maps that are undone due to squashing
system.switch_cpus1.rename.serializingInsts        43747                       # count of serializing insts renamed
system.switch_cpus1.rename.tempSerializingInsts        25119                       # count of temporary serializing insts renamed
system.switch_cpus1.rename.skidInsts          4524215                       # count of insts added to the skid buffer
system.switch_cpus1.memDep0.insertedLoads     15079588                       # Number of loads inserted to the mem dependence unit.
system.switch_cpus1.memDep0.insertedStores      8271030                       # Number of stores inserted to the mem dependence unit.
system.switch_cpus1.memDep0.conflictingLoads       146058                       # Number of conflicting loads.
system.switch_cpus1.memDep0.conflictingStores      1796924                       # Number of conflicting stores.
system.switch_cpus1.iq.iqInstsAdded         158623347                       # Number of instructions added to the IQ (excludes non-spec)
system.switch_cpus1.iq.iqNonSpecInstsAdded        43729                       # Number of non-speculative instructions added to the IQ
system.switch_cpus1.iq.iqInstsIssued        150463774                       # Number of instructions issued
system.switch_cpus1.iq.iqSquashedInstsIssued        29863                       # Number of squashed instructions issued
system.switch_cpus1.iq.iqSquashedInstsExamined     18020108                       # Number of squashed instructions iterated over during squash; mainly for profiling
system.switch_cpus1.iq.iqSquashedOperandsExamined     42808279                       # Number of squashed operands that are examined and possibly removed from graph
system.switch_cpus1.iq.iqSquashedNonSpecRemoved         6473                       # Number of squashed non-spec instructions that were removed
system.switch_cpus1.iq.issued_per_cycle::samples    257748498                       # Number of insts issued each cycle
system.switch_cpus1.iq.issued_per_cycle::mean     0.583762                       # Number of insts issued each cycle
system.switch_cpus1.iq.issued_per_cycle::stdev     1.272697                       # Number of insts issued each cycle
system.switch_cpus1.iq.issued_per_cycle::underflows            0      0.00%      0.00% # Number of insts issued each cycle
system.switch_cpus1.iq.issued_per_cycle::0    194124438     75.32%     75.32% # Number of insts issued each cycle
system.switch_cpus1.iq.issued_per_cycle::1     25942586     10.07%     85.38% # Number of insts issued each cycle
system.switch_cpus1.iq.issued_per_cycle::2     13412524      5.20%     90.58% # Number of insts issued each cycle
system.switch_cpus1.iq.issued_per_cycle::3     10104298      3.92%     94.50% # Number of insts issued each cycle
system.switch_cpus1.iq.issued_per_cycle::4      7859812      3.05%     97.55% # Number of insts issued each cycle
system.switch_cpus1.iq.issued_per_cycle::5      3155998      1.22%     98.78% # Number of insts issued each cycle
system.switch_cpus1.iq.issued_per_cycle::6      2006058      0.78%     99.56% # Number of insts issued each cycle
system.switch_cpus1.iq.issued_per_cycle::7      1014612      0.39%     99.95% # Number of insts issued each cycle
system.switch_cpus1.iq.issued_per_cycle::8       128172      0.05%    100.00% # Number of insts issued each cycle
system.switch_cpus1.iq.issued_per_cycle::overflows            0      0.00%    100.00% # Number of insts issued each cycle
system.switch_cpus1.iq.issued_per_cycle::min_value            0                       # Number of insts issued each cycle
system.switch_cpus1.iq.issued_per_cycle::max_value            8                       # Number of insts issued each cycle
system.switch_cpus1.iq.issued_per_cycle::total    257748498                       # Number of insts issued each cycle
system.switch_cpus1.iq.fu_full::No_OpClass            0      0.00%      0.00% # attempts to use FU when none available
system.switch_cpus1.iq.fu_full::IntAlu          26901     10.14%     10.14% # attempts to use FU when none available
system.switch_cpus1.iq.fu_full::IntMult             0      0.00%     10.14% # attempts to use FU when none available
system.switch_cpus1.iq.fu_full::IntDiv              0      0.00%     10.14% # attempts to use FU when none available
system.switch_cpus1.iq.fu_full::FloatAdd            0      0.00%     10.14% # attempts to use FU when none available
system.switch_cpus1.iq.fu_full::FloatCmp            0      0.00%     10.14% # attempts to use FU when none available
system.switch_cpus1.iq.fu_full::FloatCvt            0      0.00%     10.14% # attempts to use FU when none available
system.switch_cpus1.iq.fu_full::FloatMult            0      0.00%     10.14% # attempts to use FU when none available
system.switch_cpus1.iq.fu_full::FloatDiv            0      0.00%     10.14% # attempts to use FU when none available
system.switch_cpus1.iq.fu_full::FloatSqrt            0      0.00%     10.14% # attempts to use FU when none available
system.switch_cpus1.iq.fu_full::SimdAdd             0      0.00%     10.14% # attempts to use FU when none available
system.switch_cpus1.iq.fu_full::SimdAddAcc            0      0.00%     10.14% # attempts to use FU when none available
system.switch_cpus1.iq.fu_full::SimdAlu             0      0.00%     10.14% # attempts to use FU when none available
system.switch_cpus1.iq.fu_full::SimdCmp             0      0.00%     10.14% # attempts to use FU when none available
system.switch_cpus1.iq.fu_full::SimdCvt             0      0.00%     10.14% # attempts to use FU when none available
system.switch_cpus1.iq.fu_full::SimdMisc            0      0.00%     10.14% # attempts to use FU when none available
system.switch_cpus1.iq.fu_full::SimdMult            0      0.00%     10.14% # attempts to use FU when none available
system.switch_cpus1.iq.fu_full::SimdMultAcc            0      0.00%     10.14% # attempts to use FU when none available
system.switch_cpus1.iq.fu_full::SimdShift            0      0.00%     10.14% # attempts to use FU when none available
system.switch_cpus1.iq.fu_full::SimdShiftAcc            0      0.00%     10.14% # attempts to use FU when none available
system.switch_cpus1.iq.fu_full::SimdSqrt            0      0.00%     10.14% # attempts to use FU when none available
system.switch_cpus1.iq.fu_full::SimdFloatAdd            0      0.00%     10.14% # attempts to use FU when none available
system.switch_cpus1.iq.fu_full::SimdFloatAlu            0      0.00%     10.14% # attempts to use FU when none available
system.switch_cpus1.iq.fu_full::SimdFloatCmp            0      0.00%     10.14% # attempts to use FU when none available
system.switch_cpus1.iq.fu_full::SimdFloatCvt            0      0.00%     10.14% # attempts to use FU when none available
system.switch_cpus1.iq.fu_full::SimdFloatDiv            0      0.00%     10.14% # attempts to use FU when none available
system.switch_cpus1.iq.fu_full::SimdFloatMisc            0      0.00%     10.14% # attempts to use FU when none available
system.switch_cpus1.iq.fu_full::SimdFloatMult            0      0.00%     10.14% # attempts to use FU when none available
system.switch_cpus1.iq.fu_full::SimdFloatMultAcc            0      0.00%     10.14% # attempts to use FU when none available
system.switch_cpus1.iq.fu_full::SimdFloatSqrt            0      0.00%     10.14% # attempts to use FU when none available
system.switch_cpus1.iq.fu_full::MemRead         97283     36.67%     46.82% # attempts to use FU when none available
system.switch_cpus1.iq.fu_full::MemWrite       141077     53.18%    100.00% # attempts to use FU when none available
system.switch_cpus1.iq.fu_full::IprAccess            0      0.00%    100.00% # attempts to use FU when none available
system.switch_cpus1.iq.fu_full::InstPrefetch            0      0.00%    100.00% # attempts to use FU when none available
system.switch_cpus1.iq.FU_type_0::No_OpClass            0      0.00%      0.00% # Type of FU issued
system.switch_cpus1.iq.FU_type_0::IntAlu    126056561     83.78%     83.78% # Type of FU issued
system.switch_cpus1.iq.FU_type_0::IntMult      2333866      1.55%     85.33% # Type of FU issued
system.switch_cpus1.iq.FU_type_0::IntDiv            0      0.00%     85.33% # Type of FU issued
system.switch_cpus1.iq.FU_type_0::FloatAdd            0      0.00%     85.33% # Type of FU issued
system.switch_cpus1.iq.FU_type_0::FloatCmp            0      0.00%     85.33% # Type of FU issued
system.switch_cpus1.iq.FU_type_0::FloatCvt            0      0.00%     85.33% # Type of FU issued
system.switch_cpus1.iq.FU_type_0::FloatMult            0      0.00%     85.33% # Type of FU issued
system.switch_cpus1.iq.FU_type_0::FloatDiv            0      0.00%     85.33% # Type of FU issued
system.switch_cpus1.iq.FU_type_0::FloatSqrt            0      0.00%     85.33% # Type of FU issued
system.switch_cpus1.iq.FU_type_0::SimdAdd            0      0.00%     85.33% # Type of FU issued
system.switch_cpus1.iq.FU_type_0::SimdAddAcc            0      0.00%     85.33% # Type of FU issued
system.switch_cpus1.iq.FU_type_0::SimdAlu            0      0.00%     85.33% # Type of FU issued
system.switch_cpus1.iq.FU_type_0::SimdCmp            0      0.00%     85.33% # Type of FU issued
system.switch_cpus1.iq.FU_type_0::SimdCvt            0      0.00%     85.33% # Type of FU issued
system.switch_cpus1.iq.FU_type_0::SimdMisc            0      0.00%     85.33% # Type of FU issued
system.switch_cpus1.iq.FU_type_0::SimdMult            0      0.00%     85.33% # Type of FU issued
system.switch_cpus1.iq.FU_type_0::SimdMultAcc            0      0.00%     85.33% # Type of FU issued
system.switch_cpus1.iq.FU_type_0::SimdShift            0      0.00%     85.33% # Type of FU issued
system.switch_cpus1.iq.FU_type_0::SimdShiftAcc            0      0.00%     85.33% # Type of FU issued
system.switch_cpus1.iq.FU_type_0::SimdSqrt            0      0.00%     85.33% # Type of FU issued
system.switch_cpus1.iq.FU_type_0::SimdFloatAdd            0      0.00%     85.33% # Type of FU issued
system.switch_cpus1.iq.FU_type_0::SimdFloatAlu            0      0.00%     85.33% # Type of FU issued
system.switch_cpus1.iq.FU_type_0::SimdFloatCmp            0      0.00%     85.33% # Type of FU issued
system.switch_cpus1.iq.FU_type_0::SimdFloatCvt            0      0.00%     85.33% # Type of FU issued
system.switch_cpus1.iq.FU_type_0::SimdFloatDiv            0      0.00%     85.33% # Type of FU issued
system.switch_cpus1.iq.FU_type_0::SimdFloatMisc        18628      0.01%     85.34% # Type of FU issued
system.switch_cpus1.iq.FU_type_0::SimdFloatMult            0      0.00%     85.34% # Type of FU issued
system.switch_cpus1.iq.FU_type_0::SimdFloatMultAcc            0      0.00%     85.34% # Type of FU issued
system.switch_cpus1.iq.FU_type_0::SimdFloatSqrt            0      0.00%     85.34% # Type of FU issued
system.switch_cpus1.iq.FU_type_0::MemRead     13846410      9.20%     94.54% # Type of FU issued
system.switch_cpus1.iq.FU_type_0::MemWrite      8208309      5.46%    100.00% # Type of FU issued
system.switch_cpus1.iq.FU_type_0::IprAccess            0      0.00%    100.00% # Type of FU issued
system.switch_cpus1.iq.FU_type_0::InstPrefetch            0      0.00%    100.00% # Type of FU issued
system.switch_cpus1.iq.FU_type_0::total     150463774                       # Type of FU issued
system.switch_cpus1.iq.rate                  0.539477                       # Inst issue rate
system.switch_cpus1.iq.fu_busy_cnt             265261                       # FU busy when requested
system.switch_cpus1.iq.fu_busy_rate          0.001763                       # FU busy rate (busy events/executed inst)
system.switch_cpus1.iq.int_inst_queue_reads    558971166                       # Number of integer instruction queue reads
system.switch_cpus1.iq.int_inst_queue_writes    176687582                       # Number of integer instruction queue writes
system.switch_cpus1.iq.int_inst_queue_wakeup_accesses    148207942                       # Number of integer instruction queue wakeup accesses
system.switch_cpus1.iq.fp_inst_queue_reads            0                       # Number of floating instruction queue reads
system.switch_cpus1.iq.fp_inst_queue_writes            0                       # Number of floating instruction queue writes
system.switch_cpus1.iq.fp_inst_queue_wakeup_accesses            0                       # Number of floating instruction queue wakeup accesses
system.switch_cpus1.iq.int_alu_accesses     150729035                       # Number of integer alu accesses
system.switch_cpus1.iq.fp_alu_accesses              0                       # Number of floating point alu accesses
system.switch_cpus1.iew.lsq.thread0.forwLoads       352499                       # Number of loads that had data forwarded from stores
system.switch_cpus1.iew.lsq.thread0.invAddrLoads            0                       # Number of loads ignored due to an invalid address
system.switch_cpus1.iew.lsq.thread0.squashedLoads      2487412                       # Number of loads squashed
system.switch_cpus1.iew.lsq.thread0.ignoredResponses           33                       # Number of memory responses ignored because the instruction is squashed
system.switch_cpus1.iew.lsq.thread0.memOrderViolation          398                       # Number of memory ordering violations
system.switch_cpus1.iew.lsq.thread0.squashedStores       200623                       # Number of stores squashed
system.switch_cpus1.iew.lsq.thread0.invAddrSwpfs            0                       # Number of software prefetches ignored due to an invalid address
system.switch_cpus1.iew.lsq.thread0.blockedLoads            0                       # Number of blocked loads due to partial load-store forwarding
system.switch_cpus1.iew.lsq.thread0.rescheduledLoads            0                       # Number of loads that were rescheduled
system.switch_cpus1.iew.lsq.thread0.cacheBlocked           36                       # Number of times an access to memory failed due to the cache being blocked
system.switch_cpus1.iew.iewIdleCycles               0                       # Number of cycles IEW is idle
system.switch_cpus1.iew.iewSquashCycles       3948890                       # Number of cycles IEW is squashing
system.switch_cpus1.iew.iewBlockCycles        1150853                       # Number of cycles IEW is blocking
system.switch_cpus1.iew.iewUnblockCycles       142001                       # Number of cycles IEW is unblocking
system.switch_cpus1.iew.iewDispatchedInsts    158667077                       # Number of instructions dispatched to IQ
system.switch_cpus1.iew.iewDispSquashedInsts        72700                       # Number of squashed instructions skipped by dispatch
system.switch_cpus1.iew.iewDispLoadInsts     15079588                       # Number of dispatched load instructions
system.switch_cpus1.iew.iewDispStoreInsts      8271030                       # Number of dispatched store instructions
system.switch_cpus1.iew.iewDispNonSpecInsts        25101                       # Number of dispatched non-speculative instructions
system.switch_cpus1.iew.iewIQFullEvents        104898                       # Number of times the IQ has become full, causing a stall
system.switch_cpus1.iew.iewLSQFullEvents            0                       # Number of times the LSQ has become full, causing a stall
system.switch_cpus1.iew.memOrderViolationEvents          398                       # Number of memory order violations
system.switch_cpus1.iew.predictedTakenIncorrect      1307563                       # Number of branches that were predicted taken incorrectly
system.switch_cpus1.iew.predictedNotTakenIncorrect      1275924                       # Number of branches that were predicted not taken incorrectly
system.switch_cpus1.iew.branchMispredicts      2583487                       # Number of branch mispredicts detected at execute
system.switch_cpus1.iew.iewExecutedInsts    148421287                       # Number of executed instructions
system.switch_cpus1.iew.iewExecLoadInsts     13055940                       # Number of load instructions executed
system.switch_cpus1.iew.iewExecSquashedInsts      2042483                       # Number of squashed instructions skipped in execute
system.switch_cpus1.iew.exec_swp                    0                       # number of swp insts executed
system.switch_cpus1.iew.exec_nop                    1                       # number of nop insts executed
system.switch_cpus1.iew.exec_refs            21262149                       # number of memory reference insts executed
system.switch_cpus1.iew.exec_branches        20980312                       # Number of branches executed
system.switch_cpus1.iew.exec_stores           8206209                       # Number of stores executed
system.switch_cpus1.iew.exec_rate            0.532154                       # Inst execution rate
system.switch_cpus1.iew.wb_sent             148208046                       # cumulative count of insts sent to commit
system.switch_cpus1.iew.wb_count            148207942                       # cumulative count of insts written-back
system.switch_cpus1.iew.wb_producers         85307912                       # num instructions producing a value
system.switch_cpus1.iew.wb_consumers        228511286                       # num instructions consuming a value
system.switch_cpus1.iew.wb_penalized                0                       # number of instrctions required to write to 'other' IQ
system.switch_cpus1.iew.wb_rate              0.531389                       # insts written-back per cycle
system.switch_cpus1.iew.wb_fanout            0.373320                       # average fanout of values written-back
system.switch_cpus1.iew.wb_penalized_rate            0                       # fraction of instructions written-back that wrote to 'other' IQ
system.switch_cpus1.commit.commitCommittedInsts    111758018                       # The number of committed instructions
system.switch_cpus1.commit.commitCommittedOps    137354528                       # The number of committed instructions
system.switch_cpus1.commit.commitSquashedInsts     21321166                       # The number of squashed insts skipped by commit
system.switch_cpus1.commit.commitNonSpecStalls        37256                       # The number of times commit has been forced to stall to communicate backwards
system.switch_cpus1.commit.branchMispredicts      2283177                       # The number of times a branch was mispredicted
system.switch_cpus1.commit.committed_per_cycle::samples    253799608                       # Number of insts commited each cycle
system.switch_cpus1.commit.committed_per_cycle::mean     0.541193                       # Number of insts commited each cycle
system.switch_cpus1.commit.committed_per_cycle::stdev     1.391189                       # Number of insts commited each cycle
system.switch_cpus1.commit.committed_per_cycle::underflows            0      0.00%      0.00% # Number of insts commited each cycle
system.switch_cpus1.commit.committed_per_cycle::0    197642261     77.87%     77.87% # Number of insts commited each cycle
system.switch_cpus1.commit.committed_per_cycle::1     27691003     10.91%     88.78% # Number of insts commited each cycle
system.switch_cpus1.commit.committed_per_cycle::2     10522958      4.15%     92.93% # Number of insts commited each cycle
system.switch_cpus1.commit.committed_per_cycle::3      5078973      2.00%     94.93% # Number of insts commited each cycle
system.switch_cpus1.commit.committed_per_cycle::4      4201545      1.66%     96.59% # Number of insts commited each cycle
system.switch_cpus1.commit.committed_per_cycle::5      2512465      0.99%     97.58% # Number of insts commited each cycle
system.switch_cpus1.commit.committed_per_cycle::6      2125356      0.84%     98.41% # Number of insts commited each cycle
system.switch_cpus1.commit.committed_per_cycle::7       940327      0.37%     98.78% # Number of insts commited each cycle
system.switch_cpus1.commit.committed_per_cycle::8      3084720      1.22%    100.00% # Number of insts commited each cycle
system.switch_cpus1.commit.committed_per_cycle::overflows            0      0.00%    100.00% # Number of insts commited each cycle
system.switch_cpus1.commit.committed_per_cycle::min_value            0                       # Number of insts commited each cycle
system.switch_cpus1.commit.committed_per_cycle::max_value            8                       # Number of insts commited each cycle
system.switch_cpus1.commit.committed_per_cycle::total    253799608                       # Number of insts commited each cycle
system.switch_cpus1.commit.committedInsts    111758018                       # Number of instructions committed
system.switch_cpus1.commit.committedOps     137354528                       # Number of ops (including micro ops) committed
system.switch_cpus1.commit.swp_count                0                       # Number of s/w prefetches committed
system.switch_cpus1.commit.refs              20662580                       # Number of memory references committed
system.switch_cpus1.commit.loads             12592173                       # Number of loads committed
system.switch_cpus1.commit.membars              18628                       # Number of memory barriers committed
system.switch_cpus1.commit.branches          19700626                       # Number of branches committed
system.switch_cpus1.commit.fp_insts                 0                       # Number of committed floating point instructions.
system.switch_cpus1.commit.int_insts        123805619                       # Number of committed integer instructions.
system.switch_cpus1.commit.function_calls      2802615                       # Number of function calls committed.
system.switch_cpus1.commit.bw_lim_events      3084720                       # number cycles where commit BW limit reached
system.switch_cpus1.commit.bw_limited               0                       # number of insts not committed due to BW limits
system.switch_cpus1.rob.rob_reads           409390582                       # The number of ROB reads
system.switch_cpus1.rob.rob_writes          321300592                       # The number of ROB writes
system.switch_cpus1.timesIdled                3461629                       # Number of times that the entire CPU went into an idle state and unscheduled itself
system.switch_cpus1.idleCycles               21158074                       # Total number of cycles that the CPU has spent unscheduled due to idling
system.switch_cpus1.committedInsts          111758018                       # Number of Instructions Simulated
system.switch_cpus1.committedOps            137354528                       # Number of Ops (including micro ops) Simulated
system.switch_cpus1.committedInsts_total    111758018                       # Number of Instructions Simulated
system.switch_cpus1.cpi                      2.495629                       # CPI: Cycles Per Instruction
system.switch_cpus1.cpi_total                2.495629                       # CPI: Total CPI of All Threads
system.switch_cpus1.ipc                      0.400701                       # IPC: Instructions Per Cycle
[...]
system.cpu1.icache.ReadReq_avg_miss_latency::total 183543.071429                       # average ReadReq miss latency
system.cpu1.icache.demand_avg_miss_latency::switch_cpus1.inst 183543.071429                       # average overall miss latency
system.cpu1.icache.demand_avg_miss_latency::total 183543.071429                       # average overall miss latency
system.cpu1.icache.overall_avg_miss_latency::switch_cpus1.inst 183543.071429                       # average overall miss latency
system.cpu1.icache.overall_avg_miss_latency::total 183543.071429                       # average overall miss latency
system.cpu1.icache.blocked_cycles::no_mshrs            0                       # number of cycles access was blocked
system.cpu1.icache.blocked_cycles::no_targets            0                       # number of cycles access was blocked
system.cpu1.icache.blocked::no_mshrs                0                       # number of cycles access was blocked
system.cpu1.icache.blocked::no_targets              0                       # number of cycles access was blocked
system.cpu1.icache.avg_blocked_cycles::no_mshrs          nan                       # average number of cycles each access was blocked
system.cpu1.icache.avg_blocked_cycles::no_targets          nan                       # average number of cycles each access was blocked
system.cpu1.icache.fast_writes                      0                       # number of fast writes performed
system.cpu1.icache.cache_copies                     0                       # number of cache copies performed
system.cpu1.icache.ReadReq_mshr_hits::switch_cpus1.inst            1                       # number of ReadReq MSHR hits
system.cpu1.icache.ReadReq_mshr_hits::total            1                       # number of ReadReq MSHR hits
system.cpu1.icache.demand_mshr_hits::switch_cpus1.inst            1                       # number of demand (read+write) MSHR hits
system.cpu1.icache.demand_mshr_hits::total            1                       # number of demand (read+write) MSHR hits
system.cpu1.icache.overall_mshr_hits::switch_cpus1.inst            1                       # number of overall MSHR hits
system.cpu1.icache.overall_mshr_hits::total            1                       # number of overall MSHR hits
system.cpu1.icache.ReadReq_mshr_misses::switch_cpus1.inst           13                       # number of ReadReq MSHR misses
system.cpu1.icache.ReadReq_mshr_misses::total           13                       # number of ReadReq MSHR misses
system.cpu1.icache.demand_mshr_misses::switch_cpus1.inst           13                       # number of demand (read+write) MSHR misses
system.cpu1.icache.demand_mshr_misses::total           13                       # number of demand (read+write) MSHR misses
system.cpu1.icache.overall_mshr_misses::switch_cpus1.inst           13                       # number of overall MSHR misses
system.cpu1.icache.overall_mshr_misses::total           13                       # number of overall MSHR misses
system.cpu1.icache.ReadReq_mshr_miss_latency::switch_cpus1.inst      2325772                       # number of ReadReq MSHR miss cycles
system.cpu1.icache.ReadReq_mshr_miss_latency::total      2325772                       # number of ReadReq MSHR miss cycles
system.cpu1.icache.demand_mshr_miss_latency::switch_cpus1.inst      2325772                       # number of demand (read+write) MSHR miss cycles
system.cpu1.icache.demand_mshr_miss_latency::total      2325772                       # number of demand (read+write) MSHR miss cycles
system.cpu1.icache.overall_mshr_miss_latency::switch_cpus1.inst      2325772                       # number of overall MSHR miss cycles
system.cpu1.icache.overall_mshr_miss_latency::total      2325772                       # number of overall MSHR miss cycles
system.cpu1.icache.ReadReq_mshr_miss_rate::switch_cpus1.inst     0.000001                       # mshr miss rate for ReadReq accesses
system.cpu1.icache.ReadReq_mshr_miss_rate::total     0.000001                       # mshr miss rate for ReadReq accesses
system.cpu1.icache.demand_mshr_miss_rate::switch_cpus1.inst     0.000001                       # mshr miss rate for demand accesses
system.cpu1.icache.demand_mshr_miss_rate::total     0.000001                       # mshr miss rate for demand accesses
system.cpu1.icache.overall_mshr_miss_rate::switch_cpus1.inst     0.000001                       # mshr miss rate for overall accesses
system.cpu1.icache.overall_mshr_miss_rate::total     0.000001                       # mshr miss rate for overall accesses
system.cpu1.icache.ReadReq_avg_mshr_miss_latency::switch_cpus1.inst 178905.538462                       # average ReadReq mshr miss latency
system.cpu1.icache.ReadReq_avg_mshr_miss_latency::total 178905.538462                       # average ReadReq mshr miss latency
system.cpu1.icache.demand_avg_mshr_miss_latency::switch_cpus1.inst 178905.538462                       # average overall mshr miss latency
system.cpu1.icache.demand_avg_mshr_miss_latency::total 178905.538462                       # average overall mshr miss latency
system.cpu1.icache.overall_avg_mshr_miss_latency::switch_cpus1.inst 178905.538462                       # average overall mshr miss latency
system.cpu1.icache.overall_avg_mshr_miss_latency::total 178905.538462                       # average overall mshr miss latency
system.cpu1.icache.no_allocate_misses               0                       # Number of misses that were no-allocate
system.cpu1.dcache.replacements                 58504                       # number of replacements
system.cpu1.dcache.tagsinuse                      256                       # Cycle average of tags in use
system.cpu1.dcache.total_refs               186294830                       # Total number of references to valid blocks.
system.cpu1.dcache.sampled_refs                 58760                       # Sample count of references to valid blocks.
system.cpu1.dcache.avg_refs               3170.436181                       # Average number of references to valid blocks.
system.cpu1.dcache.warmup_cycle                     0                       # Cycle when the warmup percentage was hit.
system.cpu1.dcache.occ_blocks::switch_cpus1.data   233.554601                       # Average occupied blocks per requestor
system.cpu1.dcache.occ_blocks::cpu1.data    22.445399                       # Average occupied blocks per requestor
system.cpu1.dcache.occ_percent::switch_cpus1.data     0.912323                       # Average percentage of cache occupancy
system.cpu1.dcache.occ_percent::cpu1.data     0.087677                       # Average percentage of cache occupancy
system.cpu1.dcache.occ_percent::total               1                       # Average percentage of cache occupancy
system.cpu1.dcache.ReadReq_hits::switch_cpus1.data      9580448                       # number of ReadReq hits
system.cpu1.dcache.ReadReq_hits::total        9580448                       # number of ReadReq hits
system.cpu1.dcache.WriteReq_hits::switch_cpus1.data      8029035                       # number of WriteReq hits
system.cpu1.dcache.WriteReq_hits::total       8029035                       # number of WriteReq hits
system.cpu1.dcache.LoadLockedReq_hits::switch_cpus1.data        19659                       # number of LoadLockedReq hits
system.cpu1.dcache.LoadLockedReq_hits::total        19659                       # number of LoadLockedReq hits
system.cpu1.dcache.StoreCondReq_hits::switch_cpus1.data        18628                       # number of StoreCondReq hits
system.cpu1.dcache.StoreCondReq_hits::total        18628                       # number of StoreCondReq hits
system.cpu1.dcache.demand_hits::switch_cpus1.data     17609483                       # number of demand (read+write) hits
system.cpu1.dcache.demand_hits::total        17609483                       # number of demand (read+write) hits
system.cpu1.dcache.overall_hits::switch_cpus1.data     17609483                       # number of overall hits
system.cpu1.dcache.overall_hits::total       17609483                       # number of overall hits
system.cpu1.dcache.ReadReq_misses::switch_cpus1.data       166921                       # number of ReadReq misses
system.cpu1.dcache.ReadReq_misses::total       166921                       # number of ReadReq misses
system.cpu1.dcache.WriteReq_misses::switch_cpus1.data         3055                       # number of WriteReq misses
system.cpu1.dcache.WriteReq_misses::total         3055                       # number of WriteReq misses
system.cpu1.dcache.demand_misses::switch_cpus1.data       169976                       # number of demand (read+write) misses
system.cpu1.dcache.demand_misses::total        169976                       # number of demand (read+write) misses
system.cpu1.dcache.overall_misses::switch_cpus1.data       169976                       # number of overall misses
system.cpu1.dcache.overall_misses::total       169976                       # number of overall misses
system.cpu1.dcache.ReadReq_miss_latency::switch_cpus1.data  14564073399                       # number of ReadReq miss cycles
system.cpu1.dcache.ReadReq_miss_latency::total  14564073399                       # number of ReadReq miss cycles
system.cpu1.dcache.WriteReq_miss_latency::switch_cpus1.data    447017354                       # number of WriteReq miss cycles
system.cpu1.dcache.WriteReq_miss_latency::total    447017354                       # number of WriteReq miss cycles
system.cpu1.dcache.demand_miss_latency::switch_cpus1.data  15011090753                       # number of demand (read+write) miss cycles
system.cpu1.dcache.demand_miss_latency::total  15011090753                       # number of demand (read+write) miss cycles
system.cpu1.dcache.overall_miss_latency::switch_cpus1.data  15011090753                       # number of overall miss cycles
system.cpu1.dcache.overall_miss_latency::total  15011090753                       # number of overall miss cycles
system.cpu1.dcache.ReadReq_accesses::switch_cpus1.data      9747369                       # number of ReadReq accesses(hits+misses)
system.cpu1.dcache.ReadReq_accesses::total      9747369                       # number of ReadReq accesses(hits+misses)
system.cpu1.dcache.WriteReq_accesses::switch_cpus1.data      8032090                       # number of WriteReq accesses(hits+misses)
system.cpu1.dcache.WriteReq_accesses::total      8032090                       # number of WriteReq accesses(hits+misses)
system.cpu1.dcache.LoadLockedReq_accesses::switch_cpus1.data        19659                       # number of LoadLockedReq accesses(hits+misses)
system.cpu1.dcache.LoadLockedReq_accesses::total        19659                       # number of LoadLockedReq accesses(hits+misses)
system.cpu1.dcache.StoreCondReq_accesses::switch_cpus1.data        18628                       # number of StoreCondReq accesses(hits+misses)
system.cpu1.dcache.StoreCondReq_accesses::total        18628                       # number of StoreCondReq accesses(hits+misses)
system.cpu1.dcache.demand_accesses::switch_cpus1.data     17779459                       # number of demand (read+write) accesses
system.cpu1.dcache.demand_accesses::total     17779459                       # number of demand (read+write) accesses
system.cpu1.dcache.overall_accesses::switch_cpus1.data     17779459                       # number of overall (read+write) accesses
system.cpu1.dcache.overall_accesses::total     17779459                       # number of overall (read+write) accesses
system.cpu1.dcache.ReadReq_miss_rate::switch_cpus1.data     0.017125                       # miss rate for ReadReq accesses
system.cpu1.dcache.ReadReq_miss_rate::total     0.017125                       # miss rate for ReadReq accesses
system.cpu1.dcache.WriteReq_miss_rate::switch_cpus1.data     0.000380                       # miss rate for WriteReq accesses
system.cpu1.dcache.WriteReq_miss_rate::total     0.000380                       # miss rate for WriteReq accesses
system.cpu1.dcache.demand_miss_rate::switch_cpus1.data     0.009560                       # miss rate for demand accesses
system.cpu1.dcache.demand_miss_rate::total     0.009560                       # miss rate for demand accesses
system.cpu1.dcache.overall_miss_rate::switch_cpus1.data     0.009560                       # miss rate for overall accesses
system.cpu1.dcache.overall_miss_rate::total     0.009560                       # miss rate for overall accesses
system.cpu1.dcache.ReadReq_avg_miss_latency::switch_cpus1.data 87251.294918                       # average ReadReq miss latency
system.cpu1.dcache.ReadReq_avg_miss_latency::total 87251.294918                       # average ReadReq miss latency
system.cpu1.dcache.WriteReq_avg_miss_latency::switch_cpus1.data 146323.192799                       # average WriteReq miss latency
system.cpu1.dcache.WriteReq_avg_miss_latency::total 146323.192799                       # average WriteReq miss latency
system.cpu1.dcache.demand_avg_miss_latency::switch_cpus1.data 88313.001559                       # average overall miss latency
system.cpu1.dcache.demand_avg_miss_latency::total 88313.001559                       # average overall miss latency
system.cpu1.dcache.overall_avg_miss_latency::switch_cpus1.data 88313.001559                       # average overall miss latency
system.cpu1.dcache.overall_avg_miss_latency::total 88313.001559                       # average overall miss latency
system.cpu1.dcache.blocked_cycles::no_mshrs            0                       # number of cycles access was blocked
system.cpu1.dcache.blocked_cycles::no_targets       383880                       # number of cycles access was blocked
system.cpu1.dcache.blocked::no_mshrs                0                       # number of cycles access was blocked
system.cpu1.dcache.blocked::no_targets              5                       # number of cycles access was blocked
system.cpu1.dcache.avg_blocked_cycles::no_mshrs          nan                       # average number of cycles each access was blocked
system.cpu1.dcache.avg_blocked_cycles::no_targets        76776                       # average number of cycles each access was blocked
system.cpu1.dcache.fast_writes                      0                       # number of fast writes performed
system.cpu1.dcache.cache_copies                     0                       # number of cache copies performed
system.cpu1.dcache.writebacks::writebacks        29655                       # number of writebacks
system.cpu1.dcache.writebacks::total            29655                       # number of writebacks
system.cpu1.dcache.ReadReq_mshr_hits::switch_cpus1.data       108418                       # number of ReadReq MSHR hits
system.cpu1.dcache.ReadReq_mshr_hits::total       108418                       # number of ReadReq MSHR hits
system.cpu1.dcache.WriteReq_mshr_hits::switch_cpus1.data         3054                       # number of WriteReq MSHR hits
system.cpu1.dcache.WriteReq_mshr_hits::total         3054                       # number of WriteReq MSHR hits
system.cpu1.dcache.demand_mshr_hits::switch_cpus1.data       111472                       # number of demand (read+write) MSHR hits
system.cpu1.dcache.demand_mshr_hits::total       111472                       # number of demand (read+write) MSHR hits
system.cpu1.dcache.overall_mshr_hits::switch_cpus1.data       111472                       # number of overall MSHR hits
system.cpu1.dcache.overall_mshr_hits::total       111472                       # number of overall MSHR hits
system.cpu1.dcache.ReadReq_mshr_misses::switch_cpus1.data        58503                       # number of ReadReq MSHR misses
system.cpu1.dcache.ReadReq_mshr_misses::total        58503                       # number of ReadReq MSHR misses
system.cpu1.dcache.WriteReq_mshr_misses::switch_cpus1.data            1                       # number of WriteReq MSHR misses
system.cpu1.dcache.WriteReq_mshr_misses::total            1                       # number of WriteReq MSHR misses
system.cpu1.dcache.demand_mshr_misses::switch_cpus1.data        58504                       # number of demand (read+write) MSHR misses
system.cpu1.dcache.demand_mshr_misses::total        58504                       # number of demand (read+write) MSHR misses
system.cpu1.dcache.overall_mshr_misses::switch_cpus1.data        58504                       # number of overall MSHR misses
system.cpu1.dcache.overall_mshr_misses::total        58504                       # number of overall MSHR misses
system.cpu1.dcache.ReadReq_mshr_miss_latency::switch_cpus1.data   4235563333                       # number of ReadReq MSHR miss cycles
system.cpu1.dcache.ReadReq_mshr_miss_latency::total   4235563333                       # number of ReadReq MSHR miss cycles
system.cpu1.dcache.WriteReq_mshr_miss_latency::switch_cpus1.data       170554                       # number of WriteReq MSHR miss cycles
system.cpu1.dcache.WriteReq_mshr_miss_latency::total       170554                       # number of WriteReq MSHR miss cycles
system.cpu1.dcache.demand_mshr_miss_latency::switch_cpus1.data   4235733887                       # number of demand (read+write) MSHR miss cycles
system.cpu1.dcache.demand_mshr_miss_latency::total   4235733887                       # number of demand (read+write) MSHR miss cycles
system.cpu1.dcache.overall_mshr_miss_latency::switch_cpus1.data   4235733887                       # number of overall MSHR miss cycles
system.cpu1.dcache.overall_mshr_miss_latency::total   4235733887                       # number of overall MSHR miss cycles
system.cpu1.dcache.ReadReq_mshr_miss_rate::switch_cpus1.data     0.006002                       # mshr miss rate for ReadReq accesses
system.cpu1.dcache.ReadReq_mshr_miss_rate::total     0.006002                       # mshr miss rate for ReadReq accesses
system.cpu1.dcache.WriteReq_mshr_miss_rate::switch_cpus1.data     0.000000                       # mshr miss rate for WriteReq accesses
system.cpu1.dcache.WriteReq_mshr_miss_rate::total     0.000000                       # mshr miss rate for WriteReq accesses
system.cpu1.dcache.demand_mshr_miss_rate::switch_cpus1.data     0.003291                       # mshr miss rate for demand accesses
system.cpu1.dcache.demand_mshr_miss_rate::total     0.003291                       # mshr miss rate for demand accesses
system.cpu1.dcache.overall_mshr_miss_rate::switch_cpus1.data     0.003291                       # mshr miss rate for overall accesses
system.cpu1.dcache.overall_mshr_miss_rate::total     0.003291                       # mshr miss rate for overall accesses
system.cpu1.dcache.ReadReq_avg_mshr_miss_latency::switch_cpus1.data 72399.079244                       # average ReadReq mshr miss latency
system.cpu1.dcache.ReadReq_avg_mshr_miss_latency::total 72399.079244                       # average ReadReq mshr miss latency
system.cpu1.dcache.WriteReq_avg_mshr_miss_latency::switch_cpus1.data       170554                       # average WriteReq mshr miss latency
system.cpu1.dcache.WriteReq_avg_mshr_miss_latency::total       170554                       # average WriteReq mshr miss latency
system.cpu1.dcache.demand_avg_mshr_miss_latency::switch_cpus1.data 72400.756991                       # average overall mshr miss latency
system.cpu1.dcache.demand_avg_mshr_miss_latency::total 72400.756991                       # average overall mshr miss latency
system.cpu1.dcache.overall_avg_mshr_miss_latency::switch_cpus1.data 72400.756991                       # average overall mshr miss latency
system.cpu1.dcache.overall_avg_mshr_miss_latency::total 72400.756991                       # average overall mshr miss latency
system.cpu1.dcache.no_allocate_misses               0                       # Number of misses that were no-allocate

---------- End Simulation Statistics   ----------
