
---------- Begin Simulation Statistics ----------
sim_seconds                                  0.122125                       # Number of seconds simulated
sim_ticks                                122125152058                       # Number of ticks simulated
final_tick                               1176691679149                       # Number of ticks from beginning of simulation (restored from checkpoints and never reset)
sim_freq                                 1000000000000                       # Frequency of simulated ticks
host_inst_rate                                 104712                       # Simulator instruction rate (inst/s)
host_op_rate                                   132241                       # Simulator op (including micro ops) rate (op/s)
host_tick_rate                                3869105                       # Simulator tick rate (ticks/s)
host_mem_usage                               16902344                       # Number of bytes of host memory used
host_seconds                                 31564.18                       # Real time elapsed on the host
sim_insts                                  3305153484                       # Number of instructions simulated
sim_ops                                    4174075334                       # Number of ops (including micro ops) simulated
system.physmem.bytes_read::switch_cpus0.inst         1664                       # Number of bytes read from this memory
system.physmem.bytes_read::switch_cpus0.data      1204352                       # Number of bytes read from this memory
system.physmem.bytes_read::switch_cpus1.inst         1664                       # Number of bytes read from this memory
system.physmem.bytes_read::switch_cpus1.data      2201344                       # Number of bytes read from this memory
system.physmem.bytes_read::switch_cpus2.inst         1280                       # Number of bytes read from this memory
system.physmem.bytes_read::switch_cpus2.data      1949184                       # Number of bytes read from this memory
system.physmem.bytes_read::total              5359488                       # Number of bytes read from this memory
system.physmem.bytes_inst_read::switch_cpus0.inst         1664                       # Number of instructions bytes read from this memory
system.physmem.bytes_inst_read::switch_cpus1.inst         1664                       # Number of instructions bytes read from this memory
system.physmem.bytes_inst_read::switch_cpus2.inst         1280                       # Number of instructions bytes read from this memory
system.physmem.bytes_inst_read::total            4608                       # Number of instructions bytes read from this memory
system.physmem.bytes_written::writebacks      1937920                       # Number of bytes written to this memory
system.physmem.bytes_written::total           1937920                       # Number of bytes written to this memory
system.physmem.num_reads::switch_cpus0.inst           13                       # Number of read requests responded to by this memory
system.physmem.num_reads::switch_cpus0.data         9409                       # Number of read requests responded to by this memory
system.physmem.num_reads::switch_cpus1.inst           13                       # Number of read requests responded to by this memory
system.physmem.num_reads::switch_cpus1.data        17198                       # Number of read requests responded to by this memory
system.physmem.num_reads::switch_cpus2.inst           10                       # Number of read requests responded to by this memory
system.physmem.num_reads::switch_cpus2.data        15228                       # Number of read requests responded to by this memory
system.physmem.num_reads::total                 41871                       # Number of read requests responded to by this memory
system.physmem.num_writes::writebacks           15140                       # Number of write requests responded to by this memory
system.physmem.num_writes::functional               0                       # Number of write requests responded to by this memory
system.physmem.num_writes::interrupt                0                       # Number of write requests responded to by this memory
system.physmem.num_writes::switch_cpus0.dtb.walker            0                       # Number of write requests responded to by this memory
system.physmem.num_writes::switch_cpus0.itb.walker            0                       # Number of write requests responded to by this memory
system.physmem.num_writes::switch_cpus0.inst            0                       # Number of write requests responded to by this memory
system.physmem.num_writes::switch_cpus0.data            0                       # Number of write requests responded to by this memory
system.physmem.num_writes::switch_cpus1.dtb.walker            0                       # Number of write requests responded to by this memory
system.physmem.num_writes::switch_cpus1.itb.walker            0                       # Number of write requests responded to by this memory
system.physmem.num_writes::switch_cpus1.inst            0                       # Number of write requests responded to by this memory
system.physmem.num_writes::switch_cpus1.data            0                       # Number of write requests responded to by this memory
system.physmem.num_writes::switch_cpus2.dtb.walker            0                       # Number of write requests responded to by this memory
system.physmem.num_writes::switch_cpus2.itb.walker            0                       # Number of write requests responded to by this memory
system.physmem.num_writes::switch_cpus2.inst            0                       # Number of write requests responded to by this memory
system.physmem.num_writes::switch_cpus2.data            0                       # Number of write requests responded to by this memory
system.physmem.num_writes::cpu0.dtb.walker            0                       # Number of write requests responded to by this memory
system.physmem.num_writes::cpu0.itb.walker            0                       # Number of write requests responded to by this memory
system.physmem.num_writes::cpu0.inst                0                       # Number of write requests responded to by this memory
system.physmem.num_writes::cpu0.data                0                       # Number of write requests responded to by this memory
system.physmem.num_writes::cpu1.dtb.walker            0                       # Number of write requests responded to by this memory
system.physmem.num_writes::cpu1.itb.walker            0                       # Number of write requests responded to by this memory
system.physmem.num_writes::cpu1.inst                0                       # Number of write requests responded to by this memory
system.physmem.num_writes::cpu1.data                0                       # Number of write requests responded to by this memory
system.physmem.num_writes::cpu2.dtb.walker            0                       # Number of write requests responded to by this memory
system.physmem.num_writes::cpu2.itb.walker            0                       # Number of write requests responded to by this memory
system.physmem.num_writes::cpu2.inst                0                       # Number of write requests responded to by this memory
system.physmem.num_writes::cpu2.data                0                       # Number of write requests responded to by this memory
system.physmem.num_writes::total                15140                       # Number of write requests responded to by this memory
system.physmem.bw_read::switch_cpus0.inst        13625                       # Total read bandwidth from this memory (bytes/s)
system.physmem.bw_read::switch_cpus0.data      9861621                       # Total read bandwidth from this memory (bytes/s)
system.physmem.bw_read::switch_cpus1.inst        13625                       # Total read bandwidth from this memory (bytes/s)
system.physmem.bw_read::switch_cpus1.data     18025312                       # Total read bandwidth from this memory (bytes/s)
system.physmem.bw_read::switch_cpus2.inst        10481                       # Total read bandwidth from this memory (bytes/s)
system.physmem.bw_read::switch_cpus2.data     15960545                       # Total read bandwidth from this memory (bytes/s)
system.physmem.bw_read::total                43885210                       # Total read bandwidth from this memory (bytes/s)
system.physmem.bw_inst_read::switch_cpus0.inst        13625                       # Instruction read bandwidth from this memory (bytes/s)
system.physmem.bw_inst_read::switch_cpus1.inst        13625                       # Instruction read bandwidth from this memory (bytes/s)
system.physmem.bw_inst_read::switch_cpus2.inst        10481                       # Instruction read bandwidth from this memory (bytes/s)
system.physmem.bw_inst_read::total              37732                       # Instruction read bandwidth from this memory (bytes/s)
system.physmem.bw_write::writebacks          15868312                       # Write bandwidth from this memory (bytes/s)
system.physmem.bw_write::total               15868312                       # Write bandwidth from this memory (bytes/s)
system.physmem.bw_total::writebacks          15868312                       # Total bandwidth to/from this memory (bytes/s)
system.physmem.bw_total::switch_cpus0.inst        13625                       # Total bandwidth to/from this memory (bytes/s)
system.physmem.bw_total::switch_cpus0.data      9861621                       # Total bandwidth to/from this memory (bytes/s)
system.physmem.bw_total::switch_cpus1.inst        13625                       # Total bandwidth to/from this memory (bytes/s)
system.physmem.bw_total::switch_cpus1.data     18025312                       # Total bandwidth to/from this memory (bytes/s)
system.physmem.bw_total::switch_cpus2.inst        10481                       # Total bandwidth to/from this memory (bytes/s)
system.physmem.bw_total::switch_cpus2.data     15960545                       # Total bandwidth to/from this memory (bytes/s)
system.physmem.bw_total::total               59753522                       # Total bandwidth to/from this memory (bytes/s)
system.switch_cpus0.dtb.inst_hits                   0                       # ITB inst hits
system.switch_cpus0.dtb.inst_misses                 0                       # ITB inst misses
system.switch_cpus0.dtb.read_hits                   0                       # DTB read hits
system.switch_cpus0.dtb.read_misses                 0                       # DTB read misses
system.switch_cpus0.dtb.write_hits                  0                       # DTB write hits
system.switch_cpus0.dtb.write_misses                0                       # DTB write misses
system.switch_cpus0.dtb.flush_tlb                   0                       # Number of times complete TLB was flushed
system.switch_cpus0.dtb.flush_tlb_mva               0                       # Number of times TLB was flushed by MVA
system.switch_cpus0.dtb.flush_tlb_mva_asid            0                       # Number of times TLB was flushed by MVA & ASID
system.switch_cpus0.dtb.flush_tlb_asid              0                       # Number of times TLB was flushed by ASID
system.switch_cpus0.dtb.flush_entries               0                       # Number of entries that have been flushed from TLB
system.switch_cpus0.dtb.align_faults                0                       # Number of TLB faults due to alignment restrictions
system.switch_cpus0.dtb.prefetch_faults             0                       # Number of TLB faults due to prefetch
system.switch_cpus0.dtb.domain_faults               0                       # Number of TLB faults due to domain restrictions
system.switch_cpus0.dtb.perms_faults                0                       # Number of TLB faults due to permissions restrictions
system.switch_cpus0.dtb.read_accesses               0                       # DTB read accesses
system.switch_cpus0.dtb.write_accesses              0                       # DTB write accesses
system.switch_cpus0.dtb.inst_accesses               0                       # ITB inst accesses
system.switch_cpus0.dtb.hits                        0                       # DTB hits
system.switch_cpus0.dtb.misses                      0                       # DTB misses
system.switch_cpus0.dtb.accesses                    0                       # DTB accesses
system.switch_cpus0.itb.inst_hits                   0                       # ITB inst hits
system.switch_cpus0.itb.inst_misses                 0                       # ITB inst misses
system.switch_cpus0.itb.read_hits                   0                       # DTB read hits
system.switch_cpus0.itb.read_misses                 0                       # DTB read misses
system.switch_cpus0.itb.write_hits                  0                       # DTB write hits
system.switch_cpus0.itb.write_misses                0                       # DTB write misses
system.switch_cpus0.itb.flush_tlb                   0                       # Number of times complete TLB was flushed
system.switch_cpus0.itb.flush_tlb_mva               0                       # Number of times TLB was flushed by MVA
system.switch_cpus0.itb.flush_tlb_mva_asid            0                       # Number of times TLB was flushed by MVA & ASID
system.switch_cpus0.itb.flush_tlb_asid              0                       # Number of times TLB was flushed by ASID
system.switch_cpus0.itb.flush_entries               0                       # Number of entries that have been flushed from TLB
system.switch_cpus0.itb.align_faults                0                       # Number of TLB faults due to alignment restrictions
system.switch_cpus0.itb.prefetch_faults             0                       # Number of TLB faults due to prefetch
system.switch_cpus0.itb.domain_faults               0                       # Number of TLB faults due to domain restrictions
system.switch_cpus0.itb.perms_faults                0                       # Number of TLB faults due to permissions restrictions
system.switch_cpus0.itb.read_accesses               0                       # DTB read accesses
system.switch_cpus0.itb.write_accesses              0                       # DTB write accesses
system.switch_cpus0.itb.inst_accesses               0                       # ITB inst accesses
system.switch_cpus0.itb.hits                        0                       # DTB hits
system.switch_cpus0.itb.misses                      0                       # DTB misses
system.switch_cpus0.itb.accesses                    0                       # DTB accesses
system.cpu0.workload.num_syscalls                   0                       # Number of system calls
system.switch_cpus0.numCycles               146608827                       # number of cpu cycles simulated
system.switch_cpus0.numWorkItemsStarted             0                       # number of work items this cpu started
system.switch_cpus0.numWorkItemsCompleted            0                       # number of work items this cpu completed
system.switch_cpus0.BPredUnit.lookups        22767905                       # Number of BP lookups
system.switch_cpus0.BPredUnit.condPredicted     18768499                       # Number of conditional branches predicted
system.switch_cpus0.BPredUnit.condIncorrect      2028618                       # Number of conditional branches incorrect
system.switch_cpus0.BPredUnit.BTBLookups      9221232                       # Number of BTB lookups
system.switch_cpus0.BPredUnit.BTBHits         8715991                       # Number of BTB hits
system.switch_cpus0.BPredUnit.BTBCorrect            0                       # Number of correct BTB predictions (this stat may not work properly.
system.switch_cpus0.BPredUnit.usedRAS         2385997                       # Number of times the RAS was used to get a target.
system.switch_cpus0.BPredUnit.RASInCorrect        89216                       # Number of incorrect RAS predictions.
system.switch_cpus0.fetch.icacheStallCycles    110868297                       # Number of cycles fetch is stalled on an Icache miss
system.switch_cpus0.fetch.Insts             125097631                       # Number of instructions fetch has processed
system.switch_cpus0.fetch.Branches           22767905                       # Number of branches that fetch encountered
system.switch_cpus0.fetch.predictedBranches     11101988                       # Number of branches that fetch has predicted taken
system.switch_cpus0.fetch.Cycles             26124058                       # Number of cycles fetch has run and was not squashing or blocked
system.switch_cpus0.fetch.SquashCycles        6017249                       # Number of cycles fetch has spent squashing
system.switch_cpus0.fetch.BlockedCycles       3243606                       # Number of cycles fetch has spent blocked
system.switch_cpus0.fetch.CacheLines         12859965                       # Number of cache lines fetched
system.switch_cpus0.fetch.IcacheSquashes      1679617                       # Number of outstanding Icache misses that were squashed
system.switch_cpus0.fetch.rateDist::samples    144190662                       # Number of instructions fetched each cycle (Total)
system.switch_cpus0.fetch.rateDist::mean     1.065235                       # Number of instructions fetched each cycle (Total)
system.switch_cpus0.fetch.rateDist::stdev     2.485731                       # Number of instructions fetched each cycle (Total)
system.switch_cpus0.fetch.rateDist::underflows            0      0.00%      0.00% # Number of instructions fetched each cycle (Total)
system.switch_cpus0.fetch.rateDist::0       118066604     81.88%     81.88% # Number of instructions fetched each cycle (Total)
system.switch_cpus0.fetch.rateDist::1         1347984      0.93%     82.82% # Number of instructions fetched each cycle (Total)
system.switch_cpus0.fetch.rateDist::2         1914736      1.33%     84.15% # Number of instructions fetched each cycle (Total)
system.switch_cpus0.fetch.rateDist::3         2522626      1.75%     85.89% # Number of instructions fetched each cycle (Total)
system.switch_cpus0.fetch.rateDist::4         2830879      1.96%     87.86% # Number of instructions fetched each cycle (Total)
system.switch_cpus0.fetch.rateDist::5         2106156      1.46%     89.32% # Number of instructions fetched each cycle (Total)
system.switch_cpus0.fetch.rateDist::6         1212912      0.84%     90.16% # Number of instructions fetched each cycle (Total)
system.switch_cpus0.fetch.rateDist::7         1790231      1.24%     91.40% # Number of instructions fetched each cycle (Total)
system.switch_cpus0.fetch.rateDist::8        12398534      8.60%    100.00% # Number of instructions fetched each cycle (Total)
system.switch_cpus0.fetch.rateDist::overflows            0      0.00%    100.00% # Number of instructions fetched each cycle (Total)
system.switch_cpus0.fetch.rateDist::min_value            0                       # Number of instructions fetched each cycle (Total)
system.switch_cpus0.fetch.rateDist::max_value            8                       # Number of instructions fetched each cycle (Total)
system.switch_cpus0.fetch.rateDist::total    144190662                       # Number of instructions fetched each cycle (Total)
system.switch_cpus0.fetch.branchRate         0.155297                       # Number of branch fetches per cycle
system.switch_cpus0.fetch.rate               0.853275                       # Number of inst fetches per cycle
system.switch_cpus0.decode.IdleCycles       109643591                       # Number of cycles decode is idle
system.switch_cpus0.decode.BlockedCycles      4877049                       # Number of cycles decode is blocked
system.switch_cpus0.decode.RunCycles         25655303                       # Number of cycles decode is running
system.switch_cpus0.decode.UnblockCycles        60246                       # Number of cycles decode is unblocking
system.switch_cpus0.decode.SquashCycles       3954467                       # Number of cycles decode is squashing
system.switch_cpus0.decode.BranchResolved      3637217                       # Number of times decode resolved a branch
system.switch_cpus0.decode.BranchMispred          237                       # Number of times decode detected a branch misprediction
system.switch_cpus0.decode.DecodedInsts     150940601                       # Number of instructions handled by decode
system.switch_cpus0.decode.SquashedInsts         1320                       # Number of squashed instructions handled by decode
system.switch_cpus0.rename.SquashCycles       3954467                       # Number of cycles rename is squashing
system.switch_cpus0.rename.IdleCycles       110397804                       # Number of cycles rename is idle
system.switch_cpus0.rename.BlockCycles        1084418                       # Number of cycles rename is blocking
system.switch_cpus0.rename.serializeStallCycles      2429443                       # count of cycles rename stalled for serializing inst
system.switch_cpus0.rename.RunCycles         24964388                       # Number of cycles rename is running
system.switch_cpus0.rename.UnblockCycles      1360137                       # Number of cycles rename is unblocking
system.switch_cpus0.rename.RenamedInsts     149948299                       # Number of instructions processed by rename
system.switch_cpus0.rename.ROBFullEvents          911                       # Number of times rename has blocked due to ROB full
system.switch_cpus0.rename.IQFullEvents        274202                       # Number of times rename has blocked due to IQ full
system.switch_cpus0.rename.LSQFullEvents       562457                       # Number of times rename has blocked due to LSQ full
system.switch_cpus0.rename.FullRegisterEvents          709                       # Number of times there has been no free registers
system.switch_cpus0.rename.RenamedOperands    209105096                       # Number of destination operands rename has renamed
system.switch_cpus0.rename.RenameLookups    700513713                       # Number of register rename lookups that rename has made
system.switch_cpus0.rename.int_rename_lookups    700513713                       # Number of integer rename lookups
system.switch_cpus0.rename.CommittedMaps    170749012                       # Number of HB maps that are committed
system.switch_cpus0.rename.UndoneMaps        38356059                       # Number of HB maps that are undone due to squashing
system.switch_cpus0.rename.serializingInsts        39695                       # count of serializing insts renamed
system.switch_cpus0.rename.tempSerializingInsts        23026                       # count of temporary serializing insts renamed
system.switch_cpus0.rename.skidInsts          4108805                       # count of insts added to the skid buffer
system.switch_cpus0.memDep0.insertedLoads     14234498                       # Number of loads inserted to the mem dependence unit.
system.switch_cpus0.memDep0.insertedStores      7404690                       # Number of stores inserted to the mem dependence unit.
system.switch_cpus0.memDep0.conflictingLoads       122103                       # Number of conflicting loads.
system.switch_cpus0.memDep0.conflictingStores      1611969                       # Number of conflicting stores.
system.switch_cpus0.iq.iqInstsAdded         145762659                       # Number of instructions added to the IQ (excludes non-spec)
system.switch_cpus0.iq.iqNonSpecInstsAdded        39652                       # Number of non-speculative instructions added to the IQ
system.switch_cpus0.iq.iqInstsIssued        136368126                       # Number of instructions issued
system.switch_cpus0.iq.iqSquashedInstsIssued        26858                       # Number of squashed instructions issued
system.switch_cpus0.iq.iqSquashedInstsExamined     21043875                       # Number of squashed instructions iterated over during squash; mainly for profiling
system.switch_cpus0.iq.iqSquashedOperandsExamined     49702020                       # Number of squashed operands that are examined and possibly removed from graph
system.switch_cpus0.iq.iqSquashedNonSpecRemoved         6316                       # Number of squashed non-spec instructions that were removed
system.switch_cpus0.iq.issued_per_cycle::samples    144190662                       # Number of insts issued each cycle
system.switch_cpus0.iq.issued_per_cycle::mean     0.945749                       # Number of insts issued each cycle
system.switch_cpus0.iq.issued_per_cycle::stdev     1.506014                       # Number of insts issued each cycle
system.switch_cpus0.iq.issued_per_cycle::underflows            0      0.00%      0.00% # Number of insts issued each cycle
system.switch_cpus0.iq.issued_per_cycle::0     86511184     60.00%     60.00% # Number of insts issued each cycle
system.switch_cpus0.iq.issued_per_cycle::1     23218086     16.10%     76.10% # Number of insts issued each cycle
system.switch_cpus0.iq.issued_per_cycle::2     12858130      8.92%     85.02% # Number of insts issued each cycle
system.switch_cpus0.iq.issued_per_cycle::3      8305380      5.76%     90.78% # Number of insts issued each cycle
system.switch_cpus0.iq.issued_per_cycle::4      7633747      5.29%     96.07% # Number of insts issued each cycle
system.switch_cpus0.iq.issued_per_cycle::5      3037913      2.11%     98.18% # Number of insts issued each cycle
system.switch_cpus0.iq.issued_per_cycle::6      1845386      1.28%     99.46% # Number of insts issued each cycle
system.switch_cpus0.iq.issued_per_cycle::7       525917      0.36%     99.82% # Number of insts issued each cycle
system.switch_cpus0.iq.issued_per_cycle::8       254919      0.18%    100.00% # Number of insts issued each cycle
system.switch_cpus0.iq.issued_per_cycle::overflows            0      0.00%    100.00% # Number of insts issued each cycle
system.switch_cpus0.iq.issued_per_cycle::min_value            0                       # Number of insts issued each cycle
system.switch_cpus0.iq.issued_per_cycle::max_value            8                       # Number of insts issued each cycle
system.switch_cpus0.iq.issued_per_cycle::total    144190662                       # Number of insts issued each cycle
system.switch_cpus0.iq.fu_full::No_OpClass            0      0.00%      0.00% # attempts to use FU when none available
system.switch_cpus0.iq.fu_full::IntAlu          65502     22.61%     22.61% # attempts to use FU when none available
system.switch_cpus0.iq.fu_full::IntMult             0      0.00%     22.61% # attempts to use FU when none available
system.switch_cpus0.iq.fu_full::IntDiv              0      0.00%     22.61% # attempts to use FU when none available
system.switch_cpus0.iq.fu_full::FloatAdd            0      0.00%     22.61% # attempts to use FU when none available
system.switch_cpus0.iq.fu_full::FloatCmp            0      0.00%     22.61% # attempts to use FU when none available
system.switch_cpus0.iq.fu_full::FloatCvt            0      0.00%     22.61% # attempts to use FU when none available
system.switch_cpus0.iq.fu_full::FloatMult            0      0.00%     22.61% # attempts to use FU when none available
system.switch_cpus0.iq.fu_full::FloatDiv            0      0.00%     22.61% # attempts to use FU when none available
system.switch_cpus0.iq.fu_full::FloatSqrt            0      0.00%     22.61% # attempts to use FU when none available
system.switch_cpus0.iq.fu_full::SimdAdd             0      0.00%     22.61% # attempts to use FU when none available
system.switch_cpus0.iq.fu_full::SimdAddAcc            0      0.00%     22.61% # attempts to use FU when none available
system.switch_cpus0.iq.fu_full::SimdAlu             0      0.00%     22.61% # attempts to use FU when none available
system.switch_cpus0.iq.fu_full::SimdCmp             0      0.00%     22.61% # attempts to use FU when none available
system.switch_cpus0.iq.fu_full::SimdCvt             0      0.00%     22.61% # attempts to use FU when none available
system.switch_cpus0.iq.fu_full::SimdMisc            0      0.00%     22.61% # attempts to use FU when none available
system.switch_cpus0.iq.fu_full::SimdMult            0      0.00%     22.61% # attempts to use FU when none available
system.switch_cpus0.iq.fu_full::SimdMultAcc            0      0.00%     22.61% # attempts to use FU when none available
system.switch_cpus0.iq.fu_full::SimdShift            0      0.00%     22.61% # attempts to use FU when none available
system.switch_cpus0.iq.fu_full::SimdShiftAcc            0      0.00%     22.61% # attempts to use FU when none available
system.switch_cpus0.iq.fu_full::SimdSqrt            0      0.00%     22.61% # attempts to use FU when none available
system.switch_cpus0.iq.fu_full::SimdFloatAdd            0      0.00%     22.61% # attempts to use FU when none available
system.switch_cpus0.iq.fu_full::SimdFloatAlu            0      0.00%     22.61% # attempts to use FU when none available
system.switch_cpus0.iq.fu_full::SimdFloatCmp            0      0.00%     22.61% # attempts to use FU when none available
system.switch_cpus0.iq.fu_full::SimdFloatCvt            0      0.00%     22.61% # attempts to use FU when none available
system.switch_cpus0.iq.fu_full::SimdFloatDiv            0      0.00%     22.61% # attempts to use FU when none available
system.switch_cpus0.iq.fu_full::SimdFloatMisc            0      0.00%     22.61% # attempts to use FU when none available
system.switch_cpus0.iq.fu_full::SimdFloatMult            0      0.00%     22.61% # attempts to use FU when none available
system.switch_cpus0.iq.fu_full::SimdFloatMultAcc            0      0.00%     22.61% # attempts to use FU when none available
system.switch_cpus0.iq.fu_full::SimdFloatSqrt            0      0.00%     22.61% # attempts to use FU when none available
system.switch_cpus0.iq.fu_full::MemRead         97519     33.67%     56.28% # attempts to use FU when none available
system.switch_cpus0.iq.fu_full::MemWrite       126627     43.72%    100.00% # attempts to use FU when none available
system.switch_cpus0.iq.fu_full::IprAccess            0      0.00%    100.00% # attempts to use FU when none available
system.switch_cpus0.iq.fu_full::InstPrefetch            0      0.00%    100.00% # attempts to use FU when none available
system.switch_cpus0.iq.FU_type_0::No_OpClass            0      0.00%      0.00% # Type of FU issued
system.switch_cpus0.iq.FU_type_0::IntAlu    114495480     83.96%     83.96% # Type of FU issued
system.switch_cpus0.iq.FU_type_0::IntMult      2083494      1.53%     85.49% # Type of FU issued
system.switch_cpus0.iq.FU_type_0::IntDiv            0      0.00%     85.49% # Type of FU issued
system.switch_cpus0.iq.FU_type_0::FloatAdd            0      0.00%     85.49% # Type of FU issued
system.switch_cpus0.iq.FU_type_0::FloatCmp            0      0.00%     85.49% # Type of FU issued
system.switch_cpus0.iq.FU_type_0::FloatCvt            0      0.00%     85.49% # Type of FU issued
system.switch_cpus0.iq.FU_type_0::FloatMult            0      0.00%     85.49% # Type of FU issued
system.switch_cpus0.iq.FU_type_0::FloatDiv            0      0.00%     85.49% # Type of FU issued
system.switch_cpus0.iq.FU_type_0::FloatSqrt            0      0.00%     85.49% # Type of FU issued
system.switch_cpus0.iq.FU_type_0::SimdAdd            0      0.00%     85.49% # Type of FU issued
system.switch_cpus0.iq.FU_type_0::SimdAddAcc            0      0.00%     85.49% # Type of FU issued
system.switch_cpus0.iq.FU_type_0::SimdAlu            0      0.00%     85.49% # Type of FU issued
system.switch_cpus0.iq.FU_type_0::SimdCmp            0      0.00%     85.49% # Type of FU issued
system.switch_cpus0.iq.FU_type_0::SimdCvt            0      0.00%     85.49% # Type of FU issued
system.switch_cpus0.iq.FU_type_0::SimdMisc            0      0.00%     85.49% # Type of FU issued
system.switch_cpus0.iq.FU_type_0::SimdMult            0      0.00%     85.49% # Type of FU issued
system.switch_cpus0.iq.FU_type_0::SimdMultAcc            0      0.00%     85.49% # Type of FU issued
system.switch_cpus0.iq.FU_type_0::SimdShift            0      0.00%     85.49% # Type of FU issued
system.switch_cpus0.iq.FU_type_0::SimdShiftAcc            0      0.00%     85.49% # Type of FU issued
system.switch_cpus0.iq.FU_type_0::SimdSqrt            0      0.00%     85.49% # Type of FU issued
system.switch_cpus0.iq.FU_type_0::SimdFloatAdd            0      0.00%     85.49% # Type of FU issued
system.switch_cpus0.iq.FU_type_0::SimdFloatAlu            0      0.00%     85.49% # Type of FU issued
system.switch_cpus0.iq.FU_type_0::SimdFloatCmp            0      0.00%     85.49% # Type of FU issued
system.switch_cpus0.iq.FU_type_0::SimdFloatCvt            0      0.00%     85.49% # Type of FU issued
system.switch_cpus0.iq.FU_type_0::SimdFloatDiv            0      0.00%     85.49% # Type of FU issued
system.switch_cpus0.iq.FU_type_0::SimdFloatMisc        16669      0.01%     85.50% # Type of FU issued
system.switch_cpus0.iq.FU_type_0::SimdFloatMult            0      0.00%     85.50% # Type of FU issued
system.switch_cpus0.iq.FU_type_0::SimdFloatMultAcc            0      0.00%     85.50% # Type of FU issued
system.switch_cpus0.iq.FU_type_0::SimdFloatSqrt            0      0.00%     85.50% # Type of FU issued
system.switch_cpus0.iq.FU_type_0::MemRead     12424823      9.11%     94.61% # Type of FU issued
system.switch_cpus0.iq.FU_type_0::MemWrite      7347660      5.39%    100.00% # Type of FU issued
system.switch_cpus0.iq.FU_type_0::IprAccess            0      0.00%    100.00% # Type of FU issued
system.switch_cpus0.iq.FU_type_0::InstPrefetch            0      0.00%    100.00% # Type of FU issued
system.switch_cpus0.iq.FU_type_0::total     136368126                       # Type of FU issued
system.switch_cpus0.iq.rate                  0.930149                       # Inst issue rate
system.switch_cpus0.iq.fu_busy_cnt             289648                       # FU busy when requested
system.switch_cpus0.iq.fu_busy_rate          0.002124                       # FU busy rate (busy events/executed inst)
system.switch_cpus0.iq.int_inst_queue_reads    417243417                       # Number of integer instruction queue reads
system.switch_cpus0.iq.int_inst_queue_writes    166846525                       # Number of integer instruction queue writes
system.switch_cpus0.iq.int_inst_queue_wakeup_accesses    133776078                       # Number of integer instruction queue wakeup accesses
system.switch_cpus0.iq.fp_inst_queue_reads            0                       # Number of floating instruction queue reads
system.switch_cpus0.iq.fp_inst_queue_writes            0                       # Number of floating instruction queue writes
system.switch_cpus0.iq.fp_inst_queue_wakeup_accesses            0                       # Number of floating instruction queue wakeup accesses
system.switch_cpus0.iq.int_alu_accesses     136657774                       # Number of integer alu accesses
system.switch_cpus0.iq.fp_alu_accesses              0                       # Number of floating point alu accesses
system.switch_cpus0.iew.lsq.thread0.forwLoads       333625                       # Number of loads that had data forwarded from stores
system.switch_cpus0.iew.lsq.thread0.invAddrLoads            0                       # Number of loads ignored due to an invalid address
system.switch_cpus0.iew.lsq.thread0.squashedLoads      2966570                       # Number of loads squashed
system.switch_cpus0.iew.lsq.thread0.ignoredResponses          140                       # Number of memory responses ignored because the instruction is squashed
system.switch_cpus0.iew.lsq.thread0.memOrderViolation          339                       # Number of memory ordering violations
system.switch_cpus0.iew.lsq.thread0.squashedStores       182246                       # Number of stores squashed
system.switch_cpus0.iew.lsq.thread0.invAddrSwpfs            0                       # Number of software prefetches ignored due to an invalid address
system.switch_cpus0.iew.lsq.thread0.blockedLoads            0                       # Number of blocked loads due to partial load-store forwarding
system.switch_cpus0.iew.lsq.thread0.rescheduledLoads            0                       # Number of loads that were rescheduled
system.switch_cpus0.iew.lsq.thread0.cacheBlocked           55                       # Number of times an access to memory failed due to the cache being blocked
system.switch_cpus0.iew.iewIdleCycles               0                       # Number of cycles IEW is idle
system.switch_cpus0.iew.iewSquashCycles       3954467                       # Number of cycles IEW is squashing
system.switch_cpus0.iew.iewBlockCycles         815991                       # Number of cycles IEW is blocking
system.switch_cpus0.iew.iewUnblockCycles       111084                       # Number of cycles IEW is unblocking
system.switch_cpus0.iew.iewDispatchedInsts    145802311                       # Number of instructions dispatched to IQ
system.switch_cpus0.iew.iewDispSquashedInsts      1334618                       # Number of squashed instructions skipped by dispatch
system.switch_cpus0.iew.iewDispLoadInsts     14234498                       # Number of dispatched load instructions
system.switch_cpus0.iew.iewDispStoreInsts      7404690                       # Number of dispatched store instructions
system.switch_cpus0.iew.iewDispNonSpecInsts        22984                       # Number of dispatched non-speculative instructions
system.switch_cpus0.iew.iewIQFullEvents         84498                       # Number of times the IQ has become full, causing a stall
system.switch_cpus0.iew.iewLSQFullEvents            0                       # Number of times the LSQ has become full, causing a stall
system.switch_cpus0.iew.memOrderViolationEvents          339                       # Number of memory order violations
system.switch_cpus0.iew.predictedTakenIncorrect      1190067                       # Number of branches that were predicted taken incorrectly
system.switch_cpus0.iew.predictedNotTakenIncorrect      1150601                       # Number of branches that were predicted not taken incorrectly
system.switch_cpus0.iew.branchMispredicts      2340668                       # Number of branch mispredicts detected at execute
system.switch_cpus0.iew.iewExecutedInsts    134531103                       # Number of executed instructions
system.switch_cpus0.iew.iewExecLoadInsts     12256126                       # Number of load instructions executed
system.switch_cpus0.iew.iewExecSquashedInsts      1837020                       # Number of squashed instructions skipped in execute
system.switch_cpus0.iew.exec_swp                    0                       # number of swp insts executed
system.switch_cpus0.iew.exec_nop                    0                       # number of nop insts executed
system.switch_cpus0.iew.exec_refs            19602403                       # number of memory reference insts executed
system.switch_cpus0.iew.exec_branches        18847216                       # Number of branches executed
system.switch_cpus0.iew.exec_stores           7346277                       # Number of stores executed
system.switch_cpus0.iew.exec_rate            0.917619                       # Inst execution rate
system.switch_cpus0.iew.wb_sent             133776356                       # cumulative count of insts sent to commit
system.switch_cpus0.iew.wb_count            133776078                       # cumulative count of insts written-back
system.switch_cpus0.iew.wb_producers         78347859                       # num instructions producing a value
system.switch_cpus0.iew.wb_consumers        212878343                       # num instructions consuming a value
system.switch_cpus0.iew.wb_penalized                0                       # number of instrctions required to write to 'other' IQ
system.switch_cpus0.iew.wb_rate              0.912469                       # insts written-back per cycle
system.switch_cpus0.iew.wb_fanout            0.368041                       # average fanout of values written-back
system.switch_cpus0.iew.wb_penalized_rate            0                       # fraction of instructions written-back that wrote to 'other' IQ
system.switch_cpus0.commit.commitCommittedInsts    100000000                       # The number of committed instructions
system.switch_cpus0.commit.commitCommittedOps    122904423                       # The number of committed instructions
system.switch_cpus0.commit.commitSquashedInsts     22906054                       # The number of squashed insts skipped by commit
system.switch_cpus0.commit.commitNonSpecStalls        33336                       # The number of times commit has been forced to stall to communicate backwards
system.switch_cpus0.commit.branchMispredicts      2061992                       # The number of times a branch was mispredicted
system.switch_cpus0.commit.committed_per_cycle::samples    140236195                       # Number of insts commited each cycle
system.switch_cpus0.commit.committed_per_cycle::mean     0.876410                       # Number of insts commited each cycle
system.switch_cpus0.commit.committed_per_cycle::stdev     1.683525                       # Number of insts commited each cycle
system.switch_cpus0.commit.committed_per_cycle::underflows            0      0.00%      0.00% # Number of insts commited each cycle
system.switch_cpus0.commit.committed_per_cycle::0     90418420     64.48%     64.48% # Number of insts commited each cycle
system.switch_cpus0.commit.committed_per_cycle::1     23953263     17.08%     81.56% # Number of insts commited each cycle
system.switch_cpus0.commit.committed_per_cycle::2      9407132      6.71%     88.26% # Number of insts commited each cycle
system.switch_cpus0.commit.committed_per_cycle::3      4838855      3.45%     91.72% # Number of insts commited each cycle
system.switch_cpus0.commit.committed_per_cycle::4      4224779      3.01%     94.73% # Number of insts commited each cycle
system.switch_cpus0.commit.committed_per_cycle::5      2027606      1.45%     96.17% # Number of insts commited each cycle
system.switch_cpus0.commit.committed_per_cycle::6      1759046      1.25%     97.43% # Number of insts commited each cycle
system.switch_cpus0.commit.committed_per_cycle::7       827843      0.59%     98.02% # Number of insts commited each cycle
system.switch_cpus0.commit.committed_per_cycle::8      2779251      1.98%    100.00% # Number of insts commited each cycle
system.switch_cpus0.commit.committed_per_cycle::overflows            0      0.00%    100.00% # Number of insts commited each cycle
system.switch_cpus0.commit.committed_per_cycle::min_value            0                       # Number of insts commited each cycle
system.switch_cpus0.commit.committed_per_cycle::max_value            8                       # Number of insts commited each cycle
system.switch_cpus0.commit.committed_per_cycle::total    140236195                       # Number of insts commited each cycle
system.switch_cpus0.commit.committedInsts    100000000                       # Number of instructions committed
system.switch_cpus0.commit.committedOps     122904423                       # Number of ops (including micro ops) committed
system.switch_cpus0.commit.swp_count                0                       # Number of s/w prefetches committed
system.switch_cpus0.commit.refs              18490372                       # Number of memory references committed
system.switch_cpus0.commit.loads             11267928                       # Number of loads committed
system.switch_cpus0.commit.membars              16668                       # Number of memory barriers committed
system.switch_cpus0.commit.branches          17627285                       # Number of branches committed
system.switch_cpus0.commit.fp_insts                 0                       # Number of committed floating point instructions.
system.switch_cpus0.commit.int_insts        110781810                       # Number of committed integer instructions.
system.switch_cpus0.commit.function_calls      2507803                       # Number of function calls committed.
system.switch_cpus0.commit.bw_lim_events      2779251                       # number cycles where commit BW limit reached
system.switch_cpus0.commit.bw_limited               0                       # number of insts not committed due to BW limits
system.switch_cpus0.rob.rob_reads           283267421                       # The number of ROB reads
system.switch_cpus0.rob.rob_writes          295575489                       # The number of ROB writes
system.switch_cpus0.timesIdled                  46702                       # Number of times that the entire CPU went into an idle state and unscheduled itself
system.switch_cpus0.idleCycles                2418165                       # Total number of cycles that the CPU has spent unscheduled due to idling
system.switch_cpus0.committedInsts          100000000                       # Number of Instructions Simulated
system.switch_cpus0.committedOps            122904423                       # Number of Ops (including micro ops) Simulated
system.switch_cpus0.committedInsts_total    100000000                       # Number of Instructions Simulated
system.switch_cpus0.cpi                      1.466088                       # CPI: Cycles Per Instruction
system.switch_cpus0.cpi_total                1.466088                       # CPI: Total CPI of All Threads
system.switch_cpus0.ipc                      0.682087                       # IPC: Instructions Per Cycle
system.switch_cpus0.ipc_total                0.682087                       # IPC: Total IPC of All Threads
system.switch_cpus0.int_regfile_reads       606167970                       # number of integer regfile reads
system.switch_cpus0.int_regfile_writes      185596268                       # number of integer regfile writes
system.switch_cpus0.misc_regfile_reads      141399300                       # number of misc regfile reads
system.switch_cpus0.misc_regfile_writes         33336                       # number of misc regfile writes
system.switch_cpus1.dtb.inst_hits                   0                       # ITB inst hits
system.switch_cpus1.dtb.inst_misses                 0                       # ITB inst misses
system.switch_cpus1.dtb.read_hits                   0                       # DTB read hits
system.switch_cpus1.dtb.read_misses                 0                       # DTB read misses
system.switch_cpus1.dtb.write_hits                  0                       # DTB write hits
system.switch_cpus1.dtb.write_misses                0                       # DTB write misses
system.switch_cpus1.dtb.flush_tlb                   0                       # Number of times complete TLB was flushed
system.switch_cpus1.dtb.flush_tlb_mva               0                       # Number of times TLB was flushed by MVA
system.switch_cpus1.dtb.flush_tlb_mva_asid            0                       # Number of times TLB was flushed by MVA & ASID
system.switch_cpus1.dtb.flush_tlb_asid              0                       # Number of times TLB was flushed by ASID
system.switch_cpus1.dtb.flush_entries               0                       # Number of entries that have been flushed from TLB
system.switch_cpus1.dtb.align_faults                0                       # Number of TLB faults due to alignment restrictions
system.switch_cpus1.dtb.prefetch_faults             0                       # Number of TLB faults due to prefetch
system.switch_cpus1.dtb.domain_faults               0                       # Number of TLB faults due to domain restrictions
system.switch_cpus1.dtb.perms_faults                0                       # Number of TLB faults due to permissions restrictions
system.switch_cpus1.dtb.read_accesses               0                       # DTB read accesses
system.switch_cpus1.dtb.write_accesses              0                       # DTB write accesses
system.switch_cpus1.dtb.inst_accesses               0                       # ITB inst accesses
system.switch_cpus1.dtb.hits                        0                       # DTB hits
system.switch_cpus1.dtb.misses                      0                       # DTB misses
system.switch_cpus1.dtb.accesses                    0                       # DTB accesses
system.switch_cpus1.itb.inst_hits                   0                       # ITB inst hits
system.switch_cpus1.itb.inst_misses                 0                       # ITB inst misses
system.switch_cpus1.itb.read_hits                   0                       # DTB read hits
system.switch_cpus1.itb.read_misses                 0                       # DTB read misses
system.switch_cpus1.itb.write_hits                  0                       # DTB write hits
system.switch_cpus1.itb.write_misses                0                       # DTB write misses
system.switch_cpus1.itb.flush_tlb                   0                       # Number of times complete TLB was flushed
system.switch_cpus1.itb.flush_tlb_mva               0                       # Number of times TLB was flushed by MVA
system.switch_cpus1.itb.flush_tlb_mva_asid            0                       # Number of times TLB was flushed by MVA & ASID
system.switch_cpus1.itb.flush_tlb_asid              0                       # Number of times TLB was flushed by ASID
system.switch_cpus1.itb.flush_entries               0                       # Number of entries that have been flushed from TLB
system.switch_cpus1.itb.align_faults                0                       # Number of TLB faults due to alignment restrictions
system.switch_cpus1.itb.prefetch_faults             0                       # Number of TLB faults due to prefetch
system.switch_cpus1.itb.domain_faults               0                       # Number of TLB faults due to domain restrictions
system.switch_cpus1.itb.perms_faults                0                       # Number of TLB faults due to permissions restrictions
system.switch_cpus1.itb.read_accesses               0                       # DTB read accesses
system.switch_cpus1.itb.write_accesses              0                       # DTB write accesses
system.switch_cpus1.itb.inst_accesses               0                       # ITB inst accesses
system.switch_cpus1.itb.hits                        0                       # DTB hits
system.switch_cpus1.itb.misses                      0                       # DTB misses
system.switch_cpus1.itb.accesses                    0                       # DTB accesses
system.cpu1.workload.num_syscalls                   0                       # Number of system calls
system.switch_cpus1.numCycles               146608827                       # number of cpu cycles simulated
system.switch_cpus1.numWorkItemsStarted             0                       # number of work items this cpu started
system.switch_cpus1.numWorkItemsCompleted            0                       # number of work items this cpu completed
system.switch_cpus1.BPredUnit.lookups        24367202                       # Number of BP lookups
system.switch_cpus1.BPredUnit.condPredicted     19748193                       # Number of conditional branches predicted
system.switch_cpus1.BPredUnit.condIncorrect      2115023                       # Number of conditional branches incorrect
system.switch_cpus1.BPredUnit.BTBLookups      9882071                       # Number of BTB lookups
system.switch_cpus1.BPredUnit.BTBHits         9357823                       # Number of BTB hits
system.switch_cpus1.BPredUnit.BTBCorrect            0                       # Number of correct BTB predictions (this stat may not work properly.
system.switch_cpus1.BPredUnit.usedRAS         2606932                       # Number of times the RAS was used to get a target.
system.switch_cpus1.BPredUnit.RASInCorrect        93943                       # Number of incorrect RAS predictions.
system.switch_cpus1.fetch.icacheStallCycles    106390124                       # Number of cycles fetch is stalled on an Icache miss
system.switch_cpus1.fetch.Insts             134106738                       # Number of instructions fetch has processed
system.switch_cpus1.fetch.Branches           24367202                       # Number of branches that fetch encountered
system.switch_cpus1.fetch.predictedBranches     11964755                       # Number of branches that fetch has predicted taken
system.switch_cpus1.fetch.Cycles             29302475                       # Number of cycles fetch has run and was not squashing or blocked
system.switch_cpus1.fetch.SquashCycles        6861428                       # Number of cycles fetch has spent squashing
system.switch_cpus1.fetch.BlockedCycles       3038896                       # Number of cycles fetch has spent blocked
system.switch_cpus1.fetch.CacheLines         12416679                       # Number of cache lines fetched
system.switch_cpus1.fetch.IcacheSquashes      1708883                       # Number of outstanding Icache misses that were squashed
system.switch_cpus1.fetch.rateDist::samples    143430820                       # Number of instructions fetched each cycle (Total)
system.switch_cpus1.fetch.rateDist::mean     1.141724                       # Number of instructions fetched each cycle (Total)
system.switch_cpus1.fetch.rateDist::stdev     2.555752                       # Number of instructions fetched each cycle (Total)
system.switch_cpus1.fetch.rateDist::underflows            0      0.00%      0.00% # Number of instructions fetched each cycle (Total)
system.switch_cpus1.fetch.rateDist::0       114128345     79.57%     79.57% # Number of instructions fetched each cycle (Total)
system.switch_cpus1.fetch.rateDist::1         2753945      1.92%     81.49% # Number of instructions fetched each cycle (Total)
system.switch_cpus1.fetch.rateDist::2         2104318      1.47%     82.96% # Number of instructions fetched each cycle (Total)
system.switch_cpus1.fetch.rateDist::3         5154241      3.59%     86.55% # Number of instructions fetched each cycle (Total)
system.switch_cpus1.fetch.rateDist::4         1163929      0.81%     87.36% # Number of instructions fetched each cycle (Total)
system.switch_cpus1.fetch.rateDist::5         1671883      1.17%     88.53% # Number of instructions fetched each cycle (Total)
system.switch_cpus1.fetch.rateDist::6         1261035      0.88%     89.41% # Number of instructions fetched each cycle (Total)
system.switch_cpus1.fetch.rateDist::7          793246      0.55%     89.96% # Number of instructions fetched each cycle (Total)
system.switch_cpus1.fetch.rateDist::8        14399878     10.04%    100.00% # Number of instructions fetched each cycle (Total)
system.switch_cpus1.fetch.rateDist::overflows            0      0.00%    100.00% # Number of instructions fetched each cycle (Total)
system.switch_cpus1.fetch.rateDist::min_value            0                       # Number of instructions fetched each cycle (Total)
system.switch_cpus1.fetch.rateDist::max_value            8                       # Number of instructions fetched each cycle (Total)
system.switch_cpus1.fetch.rateDist::total    143430820                       # Number of instructions fetched each cycle (Total)
system.switch_cpus1.fetch.branchRate         0.166206                       # Number of branch fetches per cycle
system.switch_cpus1.fetch.rate               0.914725                       # Number of inst fetches per cycle
system.switch_cpus1.decode.IdleCycles       105144508                       # Number of cycles decode is idle
system.switch_cpus1.decode.BlockedCycles      4662930                       # Number of cycles decode is blocked
system.switch_cpus1.decode.RunCycles         28852286                       # Number of cycles decode is running
system.switch_cpus1.decode.UnblockCycles       114245                       # Number of cycles decode is unblocking
system.switch_cpus1.decode.SquashCycles       4656847                       # Number of cycles decode is squashing
system.switch_cpus1.decode.BranchResolved      4204996                       # Number of times decode resolved a branch
system.switch_cpus1.decode.BranchMispred        42486                       # Number of times decode detected a branch misprediction
system.switch_cpus1.decode.DecodedInsts     161801230                       # Number of instructions handled by decode
system.switch_cpus1.decode.SquashedInsts        74639                       # Number of squashed instructions handled by decode
system.switch_cpus1.rename.SquashCycles       4656847                       # Number of cycles rename is squashing
system.switch_cpus1.rename.IdleCycles       106031843                       # Number of cycles rename is idle
system.switch_cpus1.rename.BlockCycles        1321429                       # Number of cycles rename is blocking
system.switch_cpus1.rename.serializeStallCycles      1841889                       # count of cycles rename stalled for serializing inst
system.switch_cpus1.rename.RunCycles         28069644                       # Number of cycles rename is running
system.switch_cpus1.rename.UnblockCycles      1509164                       # Number of cycles rename is unblocking
system.switch_cpus1.rename.RenamedInsts     160136562                       # Number of instructions processed by rename
system.switch_cpus1.rename.ROBFullEvents        17159                       # Number of times rename has blocked due to ROB full
system.switch_cpus1.rename.IQFullEvents        279138                       # Number of times rename has blocked due to IQ full
system.switch_cpus1.rename.LSQFullEvents       626516                       # Number of times rename has blocked due to LSQ full
system.switch_cpus1.rename.FullRegisterEvents       157137                       # Number of times there has been no free registers
system.switch_cpus1.rename.RenamedOperands    224979850                       # Number of destination operands rename has renamed
system.switch_cpus1.rename.RenameLookups    745832526                       # Number of register rename lookups that rename has made
system.switch_cpus1.rename.int_rename_lookups    745832526                       # Number of integer rename lookups
system.switch_cpus1.rename.CommittedMaps    177559843                       # Number of HB maps that are committed
system.switch_cpus1.rename.UndoneMaps        47419977                       # Number of HB maps that are undone due to squashing
system.switch_cpus1.rename.serializingInsts        39160                       # count of serializing insts renamed
system.switch_cpus1.rename.tempSerializingInsts        21960                       # count of temporary serializing insts renamed
system.switch_cpus1.rename.skidInsts          5164859                       # count of insts added to the skid buffer
system.switch_cpus1.memDep0.insertedLoads     15462093                       # Number of loads inserted to the mem dependence unit.
system.switch_cpus1.memDep0.insertedStores      7535680                       # Number of stores inserted to the mem dependence unit.
system.switch_cpus1.memDep0.conflictingLoads       126792                       # Number of conflicting loads.
system.switch_cpus1.memDep0.conflictingStores      1674092                       # Number of conflicting stores.
system.switch_cpus1.iq.iqInstsAdded         157291700                       # Number of instructions added to the IQ (excludes non-spec)
system.switch_cpus1.iq.iqNonSpecInstsAdded        39151                       # Number of non-speculative instructions added to the IQ
system.switch_cpus1.iq.iqInstsIssued        146106539                       # Number of instructions issued
system.switch_cpus1.iq.iqSquashedInstsIssued       198177                       # Number of squashed instructions issued
system.switch_cpus1.iq.iqSquashedInstsExamined     28730358                       # Number of squashed instructions iterated over during squash; mainly for profiling
system.switch_cpus1.iq.iqSquashedOperandsExamined     62166937                       # Number of squashed operands that are examined and possibly removed from graph
system.switch_cpus1.iq.iqSquashedNonSpecRemoved         4751                       # Number of squashed non-spec instructions that were removed
system.switch_cpus1.iq.issued_per_cycle::samples    143430820                       # Number of insts issued each cycle
system.switch_cpus1.iq.issued_per_cycle::mean     1.018655                       # Number of insts issued each cycle
system.switch_cpus1.iq.issued_per_cycle::stdev     1.565427                       # Number of insts issued each cycle
system.switch_cpus1.iq.issued_per_cycle::underflows            0      0.00%      0.00% # Number of insts issued each cycle
system.switch_cpus1.iq.issued_per_cycle::0     82249024     57.34%     57.34% # Number of insts issued each cycle
system.switch_cpus1.iq.issued_per_cycle::1     25703030     17.92%     75.26% # Number of insts issued each cycle
system.switch_cpus1.iq.issued_per_cycle::2     12011766      8.37%     83.64% # Number of insts issued each cycle
system.switch_cpus1.iq.issued_per_cycle::3      8805194      6.14%     89.78% # Number of insts issued each cycle
system.switch_cpus1.iq.issued_per_cycle::4      7841856      5.47%     95.25% # Number of insts issued each cycle
system.switch_cpus1.iq.issued_per_cycle::5      3109493      2.17%     97.41% # Number of insts issued each cycle
system.switch_cpus1.iq.issued_per_cycle::6      3078725      2.15%     99.56% # Number of insts issued each cycle
system.switch_cpus1.iq.issued_per_cycle::7       476700      0.33%     99.89% # Number of insts issued each cycle
system.switch_cpus1.iq.issued_per_cycle::8       155032      0.11%    100.00% # Number of insts issued each cycle
system.switch_cpus1.iq.issued_per_cycle::overflows            0      0.00%    100.00% # Number of insts issued each cycle
system.switch_cpus1.iq.issued_per_cycle::min_value            0                       # Number of insts issued each cycle
system.switch_cpus1.iq.issued_per_cycle::max_value            8                       # Number of insts issued each cycle
system.switch_cpus1.iq.issued_per_cycle::total    143430820                       # Number of insts issued each cycle
system.switch_cpus1.iq.fu_full::No_OpClass            0      0.00%      0.00% # attempts to use FU when none available
system.switch_cpus1.iq.fu_full::IntAlu         587824     68.71%     68.71% # attempts to use FU when none available
system.switch_cpus1.iq.fu_full::IntMult             0      0.00%     68.71% # attempts to use FU when none available
system.switch_cpus1.iq.fu_full::IntDiv              0      0.00%     68.71% # attempts to use FU when none available
system.switch_cpus1.iq.fu_full::FloatAdd            0      0.00%     68.71% # attempts to use FU when none available
system.switch_cpus1.iq.fu_full::FloatCmp            0      0.00%     68.71% # attempts to use FU when none available
system.switch_cpus1.iq.fu_full::FloatCvt            0      0.00%     68.71% # attempts to use FU when none available
system.switch_cpus1.iq.fu_full::FloatMult            0      0.00%     68.71% # attempts to use FU when none available
system.switch_cpus1.iq.fu_full::FloatDiv            0      0.00%     68.71% # attempts to use FU when none available
system.switch_cpus1.iq.fu_full::FloatSqrt            0      0.00%     68.71% # attempts to use FU when none available
system.switch_cpus1.iq.fu_full::SimdAdd             0      0.00%     68.71% # attempts to use FU when none available
system.switch_cpus1.iq.fu_full::SimdAddAcc            0      0.00%     68.71% # attempts to use FU when none available
system.switch_cpus1.iq.fu_full::SimdAlu             0      0.00%     68.71% # attempts to use FU when none available
system.switch_cpus1.iq.fu_full::SimdCmp             0      0.00%     68.71% # attempts to use FU when none available
system.switch_cpus1.iq.fu_full::SimdCvt             0      0.00%     68.71% # attempts to use FU when none available
system.switch_cpus1.iq.fu_full::SimdMisc            0      0.00%     68.71% # attempts to use FU when none available
system.switch_cpus1.iq.fu_full::SimdMult            0      0.00%     68.71% # attempts to use FU when none available
system.switch_cpus1.iq.fu_full::SimdMultAcc            0      0.00%     68.71% # attempts to use FU when none available
system.switch_cpus1.iq.fu_full::SimdShift            0      0.00%     68.71% # attempts to use FU when none available
system.switch_cpus1.iq.fu_full::SimdShiftAcc            0      0.00%     68.71% # attempts to use FU when none available
system.switch_cpus1.iq.fu_full::SimdSqrt            0      0.00%     68.71% # attempts to use FU when none available
system.switch_cpus1.iq.fu_full::SimdFloatAdd            0      0.00%     68.71% # attempts to use FU when none available
system.switch_cpus1.iq.fu_full::SimdFloatAlu            0      0.00%     68.71% # attempts to use FU when none available
system.switch_cpus1.iq.fu_full::SimdFloatCmp            0      0.00%     68.71% # attempts to use FU when none available
system.switch_cpus1.iq.fu_full::SimdFloatCvt            0      0.00%     68.71% # attempts to use FU when none available
system.switch_cpus1.iq.fu_full::SimdFloatDiv            0      0.00%     68.71% # attempts to use FU when none available
system.switch_cpus1.iq.fu_full::SimdFloatMisc            0      0.00%     68.71% # attempts to use FU when none available
system.switch_cpus1.iq.fu_full::SimdFloatMult            0      0.00%     68.71% # attempts to use FU when none available
system.switch_cpus1.iq.fu_full::SimdFloatMultAcc            0      0.00%     68.71% # attempts to use FU when none available
system.switch_cpus1.iq.fu_full::SimdFloatSqrt            0      0.00%     68.71% # attempts to use FU when none available
system.switch_cpus1.iq.fu_full::MemRead        119647     13.99%     82.70% # attempts to use FU when none available
system.switch_cpus1.iq.fu_full::MemWrite       147996     17.30%    100.00% # attempts to use FU when none available
system.switch_cpus1.iq.fu_full::IprAccess            0      0.00%    100.00% # attempts to use FU when none available
system.switch_cpus1.iq.fu_full::InstPrefetch            0      0.00%    100.00% # attempts to use FU when none available
system.switch_cpus1.iq.FU_type_0::No_OpClass            0      0.00%      0.00% # Type of FU issued
system.switch_cpus1.iq.FU_type_0::IntAlu    122629561     83.93%     83.93% # Type of FU issued
system.switch_cpus1.iq.FU_type_0::IntMult      2196414      1.50%     85.43% # Type of FU issued
system.switch_cpus1.iq.FU_type_0::IntDiv            0      0.00%     85.43% # Type of FU issued
system.switch_cpus1.iq.FU_type_0::FloatAdd            0      0.00%     85.43% # Type of FU issued
system.switch_cpus1.iq.FU_type_0::FloatCmp            0      0.00%     85.43% # Type of FU issued
system.switch_cpus1.iq.FU_type_0::FloatCvt            0      0.00%     85.43% # Type of FU issued
system.switch_cpus1.iq.FU_type_0::FloatMult            0      0.00%     85.43% # Type of FU issued
system.switch_cpus1.iq.FU_type_0::FloatDiv            0      0.00%     85.43% # Type of FU issued
system.switch_cpus1.iq.FU_type_0::FloatSqrt            0      0.00%     85.43% # Type of FU issued
system.switch_cpus1.iq.FU_type_0::SimdAdd            0      0.00%     85.43% # Type of FU issued
system.switch_cpus1.iq.FU_type_0::SimdAddAcc            0      0.00%     85.43% # Type of FU issued
system.switch_cpus1.iq.FU_type_0::SimdAlu            0      0.00%     85.43% # Type of FU issued
system.switch_cpus1.iq.FU_type_0::SimdCmp            0      0.00%     85.43% # Type of FU issued
system.switch_cpus1.iq.FU_type_0::SimdCvt            0      0.00%     85.43% # Type of FU issued
system.switch_cpus1.iq.FU_type_0::SimdMisc            0      0.00%     85.43% # Type of FU issued
system.switch_cpus1.iq.FU_type_0::SimdMult            0      0.00%     85.43% # Type of FU issued
system.switch_cpus1.iq.FU_type_0::SimdMultAcc            0      0.00%     85.43% # Type of FU issued
system.switch_cpus1.iq.FU_type_0::SimdShift            0      0.00%     85.43% # Type of FU issued
system.switch_cpus1.iq.FU_type_0::SimdShiftAcc            0      0.00%     85.43% # Type of FU issued
system.switch_cpus1.iq.FU_type_0::SimdSqrt            0      0.00%     85.43% # Type of FU issued
system.switch_cpus1.iq.FU_type_0::SimdFloatAdd            0      0.00%     85.43% # Type of FU issued
system.switch_cpus1.iq.FU_type_0::SimdFloatAlu            0      0.00%     85.43% # Type of FU issued
system.switch_cpus1.iq.FU_type_0::SimdFloatCmp            0      0.00%     85.43% # Type of FU issued
system.switch_cpus1.iq.FU_type_0::SimdFloatCvt            0      0.00%     85.43% # Type of FU issued
system.switch_cpus1.iq.FU_type_0::SimdFloatDiv            0      0.00%     85.43% # Type of FU issued
system.switch_cpus1.iq.FU_type_0::SimdFloatMisc        17200      0.01%     85.45% # Type of FU issued
system.switch_cpus1.iq.FU_type_0::SimdFloatMult            0      0.00%     85.45% # Type of FU issued
system.switch_cpus1.iq.FU_type_0::SimdFloatMultAcc            0      0.00%     85.45% # Type of FU issued
system.switch_cpus1.iq.FU_type_0::SimdFloatSqrt            0      0.00%     85.45% # Type of FU issued
system.switch_cpus1.iq.FU_type_0::MemRead     13798120      9.44%     94.89% # Type of FU issued
system.switch_cpus1.iq.FU_type_0::MemWrite      7465244      5.11%    100.00% # Type of FU issued
system.switch_cpus1.iq.FU_type_0::IprAccess            0      0.00%    100.00% # Type of FU issued
system.switch_cpus1.iq.FU_type_0::InstPrefetch            0      0.00%    100.00% # Type of FU issued
system.switch_cpus1.iq.FU_type_0::total     146106539                       # Type of FU issued
system.switch_cpus1.iq.rate                  0.996574                       # Inst issue rate
system.switch_cpus1.iq.fu_busy_cnt             855467                       # FU busy when requested
system.switch_cpus1.iq.fu_busy_rate          0.005855                       # FU busy rate (busy events/executed inst)
system.switch_cpus1.iq.int_inst_queue_reads    436697542                       # Number of integer instruction queue reads
system.switch_cpus1.iq.int_inst_queue_writes    186061649                       # Number of integer instruction queue writes
system.switch_cpus1.iq.int_inst_queue_wakeup_accesses    142424166                       # Number of integer instruction queue wakeup accesses
system.switch_cpus1.iq.fp_inst_queue_reads            0                       # Number of floating instruction queue reads
system.switch_cpus1.iq.fp_inst_queue_writes            0                       # Number of floating instruction queue writes
system.switch_cpus1.iq.fp_inst_queue_wakeup_accesses            0                       # Number of floating instruction queue wakeup accesses
system.switch_cpus1.iq.int_alu_accesses     146962006                       # Number of integer alu accesses
system.switch_cpus1.iq.fp_alu_accesses              0                       # Number of floating point alu accesses
system.switch_cpus1.iew.lsq.thread0.forwLoads       357863                       # Number of loads that had data forwarded from stores
system.switch_cpus1.iew.lsq.thread0.invAddrLoads            0                       # Number of loads ignored due to an invalid address
system.switch_cpus1.iew.lsq.thread0.squashedLoads      3776372                       # Number of loads squashed
system.switch_cpus1.iew.lsq.thread0.ignoredResponses         1055                       # Number of memory responses ignored because the instruction is squashed
system.switch_cpus1.iew.lsq.thread0.memOrderViolation          440                       # Number of memory ordering violations
system.switch_cpus1.iew.lsq.thread0.squashedStores       227263                       # Number of stores squashed
system.switch_cpus1.iew.lsq.thread0.invAddrSwpfs            0                       # Number of software prefetches ignored due to an invalid address
system.switch_cpus1.iew.lsq.thread0.blockedLoads            0                       # Number of blocked loads due to partial load-store forwarding
system.switch_cpus1.iew.lsq.thread0.rescheduledLoads            0                       # Number of loads that were rescheduled
system.switch_cpus1.iew.lsq.thread0.cacheBlocked            0                       # Number of times an access to memory failed due to the cache being blocked
system.switch_cpus1.iew.iewIdleCycles               0                       # Number of cycles IEW is idle
system.switch_cpus1.iew.iewSquashCycles       4656847                       # Number of cycles IEW is squashing
system.switch_cpus1.iew.iewBlockCycles         833494                       # Number of cycles IEW is blocking
system.switch_cpus1.iew.iewUnblockCycles        95345                       # Number of cycles IEW is unblocking
system.switch_cpus1.iew.iewDispatchedInsts    157330851                       # Number of instructions dispatched to IQ
system.switch_cpus1.iew.iewDispSquashedInsts        52173                       # Number of squashed instructions skipped by dispatch
system.switch_cpus1.iew.iewDispLoadInsts     15462093                       # Number of dispatched load instructions
system.switch_cpus1.iew.iewDispStoreInsts      7535680                       # Number of dispatched store instructions
system.switch_cpus1.iew.iewDispNonSpecInsts        21951                       # Number of dispatched non-speculative instructions
system.switch_cpus1.iew.iewIQFullEvents         83273                       # Number of times the IQ has become full, causing a stall
system.switch_cpus1.iew.iewLSQFullEvents            0                       # Number of times the LSQ has become full, causing a stall
system.switch_cpus1.iew.memOrderViolationEvents          440                       # Number of memory order violations
system.switch_cpus1.iew.predictedTakenIncorrect      1152329                       # Number of branches that were predicted taken incorrectly
system.switch_cpus1.iew.predictedNotTakenIncorrect      1205454                       # Number of branches that were predicted not taken incorrectly
system.switch_cpus1.iew.branchMispredicts      2357783                       # Number of branch mispredicts detected at execute
system.switch_cpus1.iew.iewExecutedInsts    143467317                       # Number of executed instructions
system.switch_cpus1.iew.iewExecLoadInsts     13258136                       # Number of load instructions executed
system.switch_cpus1.iew.iewExecSquashedInsts      2639222                       # Number of squashed instructions skipped in execute
system.switch_cpus1.iew.exec_swp                    0                       # number of swp insts executed
system.switch_cpus1.iew.exec_nop                    0                       # number of nop insts executed
system.switch_cpus1.iew.exec_refs            20721594                       # number of memory reference insts executed
system.switch_cpus1.iew.exec_branches        20375992                       # Number of branches executed
system.switch_cpus1.iew.exec_stores           7463458                       # Number of stores executed
system.switch_cpus1.iew.exec_rate            0.978572                       # Inst execution rate
system.switch_cpus1.iew.wb_sent             142610807                       # cumulative count of insts sent to commit
system.switch_cpus1.iew.wb_count            142424166                       # cumulative count of insts written-back
system.switch_cpus1.iew.wb_producers         85427896                       # num instructions producing a value
system.switch_cpus1.iew.wb_consumers        236663272                       # num instructions consuming a value
system.switch_cpus1.iew.wb_penalized                0                       # number of instrctions required to write to 'other' IQ
system.switch_cpus1.iew.wb_rate              0.971457                       # insts written-back per cycle
system.switch_cpus1.iew.wb_fanout            0.360968                       # average fanout of values written-back
system.switch_cpus1.iew.wb_penalized_rate            0                       # fraction of instructions written-back that wrote to 'other' IQ
system.switch_cpus1.commit.commitCommittedInsts    104021063                       # The number of committed instructions
system.switch_cpus1.commit.commitCommittedOps    127747757                       # The number of committed instructions
system.switch_cpus1.commit.commitSquashedInsts     29584549                       # The number of squashed insts skipped by commit
system.switch_cpus1.commit.commitNonSpecStalls        34400                       # The number of times commit has been forced to stall to communicate backwards
system.switch_cpus1.commit.branchMispredicts      2119345                       # The number of times a branch was mispredicted
system.switch_cpus1.commit.committed_per_cycle::samples    138773973                       # Number of insts commited each cycle
system.switch_cpus1.commit.committed_per_cycle::mean     0.920546                       # Number of insts commited each cycle
system.switch_cpus1.commit.committed_per_cycle::stdev     1.693233                       # Number of insts commited each cycle
system.switch_cpus1.commit.committed_per_cycle::underflows            0      0.00%      0.00% # Number of insts commited each cycle
system.switch_cpus1.commit.committed_per_cycle::0     86369462     62.24%     62.24% # Number of insts commited each cycle
system.switch_cpus1.commit.committed_per_cycle::1     24518619     17.67%     79.91% # Number of insts commited each cycle
system.switch_cpus1.commit.committed_per_cycle::2     10806855      7.79%     87.69% # Number of insts commited each cycle
system.switch_cpus1.commit.committed_per_cycle::3      5665134      4.08%     91.78% # Number of insts commited each cycle
system.switch_cpus1.commit.committed_per_cycle::4      4510263      3.25%     95.03% # Number of insts commited each cycle
system.switch_cpus1.commit.committed_per_cycle::5      1623150      1.17%     96.19% # Number of insts commited each cycle
system.switch_cpus1.commit.committed_per_cycle::6      1375876      0.99%     97.19% # Number of insts commited each cycle
system.switch_cpus1.commit.committed_per_cycle::7      1028944      0.74%     97.93% # Number of insts commited each cycle
system.switch_cpus1.commit.committed_per_cycle::8      2875670      2.07%    100.00% # Number of insts commited each cycle
system.switch_cpus1.commit.committed_per_cycle::overflows            0      0.00%    100.00% # Number of insts commited each cycle
system.switch_cpus1.commit.committed_per_cycle::min_value            0                       # Number of insts commited each cycle
system.switch_cpus1.commit.committed_per_cycle::max_value            8                       # Number of insts commited each cycle
system.switch_cpus1.commit.committed_per_cycle::total    138773973                       # Number of insts commited each cycle
system.switch_cpus1.commit.committedInsts    104021063                       # Number of instructions committed
system.switch_cpus1.commit.committedOps     127747757                       # Number of ops (including micro ops) committed
system.switch_cpus1.commit.swp_count                0                       # Number of s/w prefetches committed
[...]
system.cpu2.icache.overall_miss_latency::switch_cpus2.inst      1696852                       # number of overall miss cycles
system.cpu2.icache.overall_miss_latency::total      1696852                       # number of overall miss cycles
system.cpu2.icache.ReadReq_accesses::switch_cpus2.inst     12367144                       # number of ReadReq accesses(hits+misses)
system.cpu2.icache.ReadReq_accesses::total     12367144                       # number of ReadReq accesses(hits+misses)
system.cpu2.icache.demand_accesses::switch_cpus2.inst     12367144                       # number of demand (read+write) accesses
system.cpu2.icache.demand_accesses::total     12367144                       # number of demand (read+write) accesses
system.cpu2.icache.overall_accesses::switch_cpus2.inst     12367144                       # number of overall (read+write) accesses
system.cpu2.icache.overall_accesses::total     12367144                       # number of overall (read+write) accesses
system.cpu2.icache.ReadReq_miss_rate::switch_cpus2.inst     0.000001                       # miss rate for ReadReq accesses
system.cpu2.icache.ReadReq_miss_rate::total     0.000001                       # miss rate for ReadReq accesses
system.cpu2.icache.demand_miss_rate::switch_cpus2.inst     0.000001                       # miss rate for demand accesses
system.cpu2.icache.demand_miss_rate::total     0.000001                       # miss rate for demand accesses
system.cpu2.icache.overall_miss_rate::switch_cpus2.inst     0.000001                       # miss rate for overall accesses
system.cpu2.icache.overall_miss_rate::total     0.000001                       # miss rate for overall accesses
system.cpu2.icache.ReadReq_avg_miss_latency::switch_cpus2.inst 169685.200000                       # average ReadReq miss latency
system.cpu2.icache.ReadReq_avg_miss_latency::total 169685.200000                       # average ReadReq miss latency
system.cpu2.icache.demand_avg_miss_latency::switch_cpus2.inst 169685.200000                       # average overall miss latency
system.cpu2.icache.demand_avg_miss_latency::total 169685.200000                       # average overall miss latency
system.cpu2.icache.overall_avg_miss_latency::switch_cpus2.inst 169685.200000                       # average overall miss latency
system.cpu2.icache.overall_avg_miss_latency::total 169685.200000                       # average overall miss latency
system.cpu2.icache.blocked_cycles::no_mshrs            0                       # number of cycles access was blocked
system.cpu2.icache.blocked_cycles::no_targets            0                       # number of cycles access was blocked
system.cpu2.icache.blocked::no_mshrs                0                       # number of cycles access was blocked
system.cpu2.icache.blocked::no_targets              0                       # number of cycles access was blocked
system.cpu2.icache.avg_blocked_cycles::no_mshrs          nan                       # average number of cycles each access was blocked
system.cpu2.icache.avg_blocked_cycles::no_targets          nan                       # average number of cycles each access was blocked
system.cpu2.icache.fast_writes                      0                       # number of fast writes performed
system.cpu2.icache.cache_copies                     0                       # number of cache copies performed
system.cpu2.icache.ReadReq_mshr_misses::switch_cpus2.inst           10                       # number of ReadReq MSHR misses
system.cpu2.icache.ReadReq_mshr_misses::total           10                       # number of ReadReq MSHR misses
system.cpu2.icache.demand_mshr_misses::switch_cpus2.inst           10                       # number of demand (read+write) MSHR misses
system.cpu2.icache.demand_mshr_misses::total           10                       # number of demand (read+write) MSHR misses
system.cpu2.icache.overall_mshr_misses::switch_cpus2.inst           10                       # number of overall MSHR misses
system.cpu2.icache.overall_mshr_misses::total           10                       # number of overall MSHR misses
system.cpu2.icache.ReadReq_mshr_miss_latency::switch_cpus2.inst      1592052                       # number of ReadReq MSHR miss cycles
system.cpu2.icache.ReadReq_mshr_miss_latency::total      1592052                       # number of ReadReq MSHR miss cycles
system.cpu2.icache.demand_mshr_miss_latency::switch_cpus2.inst      1592052                       # number of demand (read+write) MSHR miss cycles
system.cpu2.icache.demand_mshr_miss_latency::total      1592052                       # number of demand (read+write) MSHR miss cycles
system.cpu2.icache.overall_mshr_miss_latency::switch_cpus2.inst      1592052                       # number of overall MSHR miss cycles
system.cpu2.icache.overall_mshr_miss_latency::total      1592052                       # number of overall MSHR miss cycles
system.cpu2.icache.ReadReq_mshr_miss_rate::switch_cpus2.inst     0.000001                       # mshr miss rate for ReadReq accesses
system.cpu2.icache.ReadReq_mshr_miss_rate::total     0.000001                       # mshr miss rate for ReadReq accesses
system.cpu2.icache.demand_mshr_miss_rate::switch_cpus2.inst     0.000001                       # mshr miss rate for demand accesses
system.cpu2.icache.demand_mshr_miss_rate::total     0.000001                       # mshr miss rate for demand accesses
system.cpu2.icache.overall_mshr_miss_rate::switch_cpus2.inst     0.000001                       # mshr miss rate for overall accesses
system.cpu2.icache.overall_mshr_miss_rate::total     0.000001                       # mshr miss rate for overall accesses
system.cpu2.icache.ReadReq_avg_mshr_miss_latency::switch_cpus2.inst 159205.200000                       # average ReadReq mshr miss latency
system.cpu2.icache.ReadReq_avg_mshr_miss_latency::total 159205.200000                       # average ReadReq mshr miss latency
system.cpu2.icache.demand_avg_mshr_miss_latency::switch_cpus2.inst 159205.200000                       # average overall mshr miss latency
system.cpu2.icache.demand_avg_mshr_miss_latency::total 159205.200000                       # average overall mshr miss latency
system.cpu2.icache.overall_avg_mshr_miss_latency::switch_cpus2.inst 159205.200000                       # average overall mshr miss latency
system.cpu2.icache.overall_avg_mshr_miss_latency::total 159205.200000                       # average overall mshr miss latency
system.cpu2.icache.no_allocate_misses               0                       # Number of misses that were no-allocate
system.cpu2.dcache.replacements                 99803                       # number of replacements
system.cpu2.dcache.tagsinuse                      256                       # Cycle average of tags in use
system.cpu2.dcache.total_refs               191150771                       # Total number of references to valid blocks.
system.cpu2.dcache.sampled_refs                100059                       # Sample count of references to valid blocks.
system.cpu2.dcache.avg_refs               1910.380585                       # Average number of references to valid blocks.
system.cpu2.dcache.warmup_cycle                     0                       # Cycle when the warmup percentage was hit.
system.cpu2.dcache.occ_blocks::switch_cpus2.data   234.584585                       # Average occupied blocks per requestor
system.cpu2.dcache.occ_blocks::cpu2.data    21.415415                       # Average occupied blocks per requestor
system.cpu2.dcache.occ_percent::switch_cpus2.data     0.916346                       # Average percentage of cache occupancy
system.cpu2.dcache.occ_percent::cpu2.data     0.083654                       # Average percentage of cache occupancy
system.cpu2.dcache.occ_percent::total               1                       # Average percentage of cache occupancy
system.cpu2.dcache.ReadReq_hits::switch_cpus2.data     11205258                       # number of ReadReq hits
system.cpu2.dcache.ReadReq_hits::total       11205258                       # number of ReadReq hits
system.cpu2.dcache.WriteReq_hits::switch_cpus2.data      7905840                       # number of WriteReq hits
system.cpu2.dcache.WriteReq_hits::total       7905840                       # number of WriteReq hits
system.cpu2.dcache.LoadLockedReq_hits::switch_cpus2.data        16729                       # number of LoadLockedReq hits
system.cpu2.dcache.LoadLockedReq_hits::total        16729                       # number of LoadLockedReq hits
system.cpu2.dcache.StoreCondReq_hits::switch_cpus2.data        16422                       # number of StoreCondReq hits
system.cpu2.dcache.StoreCondReq_hits::total        16422                       # number of StoreCondReq hits
system.cpu2.dcache.demand_hits::switch_cpus2.data     19111098                       # number of demand (read+write) hits
system.cpu2.dcache.demand_hits::total        19111098                       # number of demand (read+write) hits
system.cpu2.dcache.overall_hits::switch_cpus2.data     19111098                       # number of overall hits
system.cpu2.dcache.overall_hits::total       19111098                       # number of overall hits
system.cpu2.dcache.ReadReq_misses::switch_cpus2.data       415753                       # number of ReadReq misses
system.cpu2.dcache.ReadReq_misses::total       415753                       # number of ReadReq misses
system.cpu2.dcache.WriteReq_misses::switch_cpus2.data          100                       # number of WriteReq misses
system.cpu2.dcache.WriteReq_misses::total          100                       # number of WriteReq misses
system.cpu2.dcache.demand_misses::switch_cpus2.data       415853                       # number of demand (read+write) misses
system.cpu2.dcache.demand_misses::total        415853                       # number of demand (read+write) misses
system.cpu2.dcache.overall_misses::switch_cpus2.data       415853                       # number of overall misses
system.cpu2.dcache.overall_misses::total       415853                       # number of overall misses
system.cpu2.dcache.ReadReq_miss_latency::switch_cpus2.data  40553615501                       # number of ReadReq miss cycles
system.cpu2.dcache.ReadReq_miss_latency::total  40553615501                       # number of ReadReq miss cycles
system.cpu2.dcache.WriteReq_miss_latency::switch_cpus2.data      9998105                       # number of WriteReq miss cycles
system.cpu2.dcache.WriteReq_miss_latency::total      9998105                       # number of WriteReq miss cycles
system.cpu2.dcache.demand_miss_latency::switch_cpus2.data  40563613606                       # number of demand (read+write) miss cycles
system.cpu2.dcache.demand_miss_latency::total  40563613606                       # number of demand (read+write) miss cycles
system.cpu2.dcache.overall_miss_latency::switch_cpus2.data  40563613606                       # number of overall miss cycles
system.cpu2.dcache.overall_miss_latency::total  40563613606                       # number of overall miss cycles
system.cpu2.dcache.ReadReq_accesses::switch_cpus2.data     11621011                       # number of ReadReq accesses(hits+misses)
system.cpu2.dcache.ReadReq_accesses::total     11621011                       # number of ReadReq accesses(hits+misses)
system.cpu2.dcache.WriteReq_accesses::switch_cpus2.data      7905940                       # number of WriteReq accesses(hits+misses)
system.cpu2.dcache.WriteReq_accesses::total      7905940                       # number of WriteReq accesses(hits+misses)
system.cpu2.dcache.LoadLockedReq_accesses::switch_cpus2.data        16729                       # number of LoadLockedReq accesses(hits+misses)
system.cpu2.dcache.LoadLockedReq_accesses::total        16729                       # number of LoadLockedReq accesses(hits+misses)
system.cpu2.dcache.StoreCondReq_accesses::switch_cpus2.data        16422                       # number of StoreCondReq accesses(hits+misses)
system.cpu2.dcache.StoreCondReq_accesses::total        16422                       # number of StoreCondReq accesses(hits+misses)
system.cpu2.dcache.demand_accesses::switch_cpus2.data     19526951                       # number of demand (read+write) accesses
system.cpu2.dcache.demand_accesses::total     19526951                       # number of demand (read+write) accesses
system.cpu2.dcache.overall_accesses::switch_cpus2.data     19526951                       # number of overall (read+write) accesses
system.cpu2.dcache.overall_accesses::total     19526951                       # number of overall (read+write) accesses
system.cpu2.dcache.ReadReq_miss_rate::switch_cpus2.data     0.035776                       # miss rate for ReadReq accesses
system.cpu2.dcache.ReadReq_miss_rate::total     0.035776                       # miss rate for ReadReq accesses
system.cpu2.dcache.WriteReq_miss_rate::switch_cpus2.data     0.000013                       # miss rate for WriteReq accesses
system.cpu2.dcache.WriteReq_miss_rate::total     0.000013                       # miss rate for WriteReq accesses
system.cpu2.dcache.demand_miss_rate::switch_cpus2.data     0.021296                       # miss rate for demand accesses
system.cpu2.dcache.demand_miss_rate::total     0.021296                       # miss rate for demand accesses
system.cpu2.dcache.overall_miss_rate::switch_cpus2.data     0.021296                       # miss rate for overall accesses
system.cpu2.dcache.overall_miss_rate::total     0.021296                       # miss rate for overall accesses
system.cpu2.dcache.ReadReq_avg_miss_latency::switch_cpus2.data 97542.568547                       # average ReadReq miss latency
system.cpu2.dcache.ReadReq_avg_miss_latency::total 97542.568547                       # average ReadReq miss latency
system.cpu2.dcache.WriteReq_avg_miss_latency::switch_cpus2.data 99981.050000                       # average WriteReq miss latency
system.cpu2.dcache.WriteReq_avg_miss_latency::total 99981.050000                       # average WriteReq miss latency
system.cpu2.dcache.demand_avg_miss_latency::switch_cpus2.data 97543.154927                       # average overall miss latency
system.cpu2.dcache.demand_avg_miss_latency::total 97543.154927                       # average overall miss latency
system.cpu2.dcache.overall_avg_miss_latency::switch_cpus2.data 97543.154927                       # average overall miss latency
system.cpu2.dcache.overall_avg_miss_latency::total 97543.154927                       # average overall miss latency
system.cpu2.dcache.blocked_cycles::no_mshrs            0                       # number of cycles access was blocked
system.cpu2.dcache.blocked_cycles::no_targets            0                       # number of cycles access was blocked
system.cpu2.dcache.blocked::no_mshrs                0                       # number of cycles access was blocked
system.cpu2.dcache.blocked::no_targets              0                       # number of cycles access was blocked
system.cpu2.dcache.avg_blocked_cycles::no_mshrs          nan                       # average number of cycles each access was blocked
system.cpu2.dcache.avg_blocked_cycles::no_targets          nan                       # average number of cycles each access was blocked
system.cpu2.dcache.fast_writes                      0                       # number of fast writes performed
system.cpu2.dcache.cache_copies                     0                       # number of cache copies performed
system.cpu2.dcache.writebacks::writebacks        22175                       # number of writebacks
system.cpu2.dcache.writebacks::total            22175                       # number of writebacks
system.cpu2.dcache.ReadReq_mshr_hits::switch_cpus2.data       315950                       # number of ReadReq MSHR hits
system.cpu2.dcache.ReadReq_mshr_hits::total       315950                       # number of ReadReq MSHR hits
system.cpu2.dcache.WriteReq_mshr_hits::switch_cpus2.data          100                       # number of WriteReq MSHR hits
system.cpu2.dcache.WriteReq_mshr_hits::total          100                       # number of WriteReq MSHR hits
system.cpu2.dcache.demand_mshr_hits::switch_cpus2.data       316050                       # number of demand (read+write) MSHR hits
system.cpu2.dcache.demand_mshr_hits::total       316050                       # number of demand (read+write) MSHR hits
system.cpu2.dcache.overall_mshr_hits::switch_cpus2.data       316050                       # number of overall MSHR hits
system.cpu2.dcache.overall_mshr_hits::total       316050                       # number of overall MSHR hits
system.cpu2.dcache.ReadReq_mshr_misses::switch_cpus2.data        99803                       # number of ReadReq MSHR misses
system.cpu2.dcache.ReadReq_mshr_misses::total        99803                       # number of ReadReq MSHR misses
system.cpu2.dcache.demand_mshr_misses::switch_cpus2.data        99803                       # number of demand (read+write) MSHR misses
system.cpu2.dcache.demand_mshr_misses::total        99803                       # number of demand (read+write) MSHR misses
system.cpu2.dcache.overall_mshr_misses::switch_cpus2.data        99803                       # number of overall MSHR misses
system.cpu2.dcache.overall_mshr_misses::total        99803                       # number of overall MSHR misses
system.cpu2.dcache.ReadReq_mshr_miss_latency::switch_cpus2.data   8957324316                       # number of ReadReq MSHR miss cycles
system.cpu2.dcache.ReadReq_mshr_miss_latency::total   8957324316                       # number of ReadReq MSHR miss cycles
system.cpu2.dcache.demand_mshr_miss_latency::switch_cpus2.data   8957324316                       # number of demand (read+write) MSHR miss cycles
system.cpu2.dcache.demand_mshr_miss_latency::total   8957324316                       # number of demand (read+write) MSHR miss cycles
system.cpu2.dcache.overall_mshr_miss_latency::switch_cpus2.data   8957324316                       # number of overall MSHR miss cycles
system.cpu2.dcache.overall_mshr_miss_latency::total   8957324316                       # number of overall MSHR miss cycles
system.cpu2.dcache.ReadReq_mshr_miss_rate::switch_cpus2.data     0.008588                       # mshr miss rate for ReadReq accesses
system.cpu2.dcache.ReadReq_mshr_miss_rate::total     0.008588                       # mshr miss rate for ReadReq accesses
system.cpu2.dcache.demand_mshr_miss_rate::switch_cpus2.data     0.005111                       # mshr miss rate for demand accesses
system.cpu2.dcache.demand_mshr_miss_rate::total     0.005111                       # mshr miss rate for demand accesses
system.cpu2.dcache.overall_mshr_miss_rate::switch_cpus2.data     0.005111                       # mshr miss rate for overall accesses
system.cpu2.dcache.overall_mshr_miss_rate::total     0.005111                       # mshr miss rate for overall accesses
system.cpu2.dcache.ReadReq_avg_mshr_miss_latency::switch_cpus2.data 89750.050760                       # average ReadReq mshr miss latency
system.cpu2.dcache.ReadReq_avg_mshr_miss_latency::total 89750.050760                       # average ReadReq mshr miss latency
system.cpu2.dcache.demand_avg_mshr_miss_latency::switch_cpus2.data 89750.050760                       # average overall mshr miss latency
system.cpu2.dcache.demand_avg_mshr_miss_latency::total 89750.050760                       # average overall mshr miss latency
system.cpu2.dcache.overall_avg_mshr_miss_latency::switch_cpus2.data 89750.050760                       # average overall mshr miss latency
system.cpu2.dcache.overall_avg_mshr_miss_latency::total 89750.050760                       # average overall mshr miss latency
system.cpu2.dcache.no_allocate_misses               0                       # Number of misses that were no-allocate

---------- End Simulation Statistics   ----------
