
---------- Begin Simulation Statistics ----------
sim_seconds                                  0.099302                       # Number of seconds simulated
sim_ticks                                 99301932627                       # Number of ticks simulated
final_tick                               627378642129                       # Number of ticks from beginning of simulation (restored from checkpoints and never reset)
sim_freq                                 1000000000000                       # Frequency of simulated ticks
host_inst_rate                                 146657                       # Simulator instruction rate (inst/s)
host_op_rate                                   184940                       # Simulator op (including micro ops) rate (op/s)
host_tick_rate                                4408586                       # Simulator tick rate (ticks/s)
host_mem_usage                               16908488                       # Number of bytes of host memory used
host_seconds                                 22524.67                       # Real time elapsed on the host
sim_insts                                  3303409560                       # Number of instructions simulated
sim_ops                                    4165713434                       # Number of ops (including micro ops) simulated
system.physmem.bytes_read::switch_cpus0.inst         1792                       # Number of bytes read from this memory
system.physmem.bytes_read::switch_cpus0.data       582528                       # Number of bytes read from this memory
system.physmem.bytes_read::switch_cpus1.inst         1920                       # Number of bytes read from this memory
system.physmem.bytes_read::switch_cpus1.data       525184                       # Number of bytes read from this memory
system.physmem.bytes_read::switch_cpus2.inst         1664                       # Number of bytes read from this memory
system.physmem.bytes_read::switch_cpus2.data      2221568                       # Number of bytes read from this memory
system.physmem.bytes_read::total              3334656                       # Number of bytes read from this memory
system.physmem.bytes_inst_read::switch_cpus0.inst         1792                       # Number of instructions bytes read from this memory
system.physmem.bytes_inst_read::switch_cpus1.inst         1920                       # Number of instructions bytes read from this memory
system.physmem.bytes_inst_read::switch_cpus2.inst         1664                       # Number of instructions bytes read from this memory
system.physmem.bytes_inst_read::total            5376                       # Number of instructions bytes read from this memory
system.physmem.bytes_written::writebacks      1182080                       # Number of bytes written to this memory
system.physmem.bytes_written::total           1182080                       # Number of bytes written to this memory
system.physmem.num_reads::switch_cpus0.inst           14                       # Number of read requests responded to by this memory
system.physmem.num_reads::switch_cpus0.data         4551                       # Number of read requests responded to by this memory
system.physmem.num_reads::switch_cpus1.inst           15                       # Number of read requests responded to by this memory
system.physmem.num_reads::switch_cpus1.data         4103                       # Number of read requests responded to by this memory
system.physmem.num_reads::switch_cpus2.inst           13                       # Number of read requests responded to by this memory
system.physmem.num_reads::switch_cpus2.data        17356                       # Number of read requests responded to by this memory
system.physmem.num_reads::total                 26052                       # Number of read requests responded to by this memory
system.physmem.num_writes::writebacks            9235                       # Number of write requests responded to by this memory
system.physmem.num_writes::functional               0                       # Number of write requests responded to by this memory
system.physmem.num_writes::interrupt                0                       # Number of write requests responded to by this memory
system.physmem.num_writes::switch_cpus0.dtb.walker            0                       # Number of write requests responded to by this memory
system.physmem.num_writes::switch_cpus0.itb.walker            0                       # Number of write requests responded to by this memory
system.physmem.num_writes::switch_cpus0.inst            0                       # Number of write requests responded to by this memory
system.physmem.num_writes::switch_cpus0.data            0                       # Number of write requests responded to by this memory
system.physmem.num_writes::switch_cpus1.dtb.walker            0                       # Number of write requests responded to by this memory
system.physmem.num_writes::switch_cpus1.itb.walker            0                       # Number of write requests responded to by this memory
system.physmem.num_writes::switch_cpus1.inst            0                       # Number of write requests responded to by this memory
system.physmem.num_writes::switch_cpus1.data            0                       # Number of write requests responded to by this memory
system.physmem.num_writes::switch_cpus2.dtb.walker            0                       # Number of write requests responded to by this memory
system.physmem.num_writes::switch_cpus2.itb.walker            0                       # Number of write requests responded to by this memory
system.physmem.num_writes::switch_cpus2.inst            0                       # Number of write requests responded to by this memory
system.physmem.num_writes::switch_cpus2.data            0                       # Number of write requests responded to by this memory
system.physmem.num_writes::cpu0.dtb.walker            0                       # Number of write requests responded to by this memory
system.physmem.num_writes::cpu0.itb.walker            0                       # Number of write requests responded to by this memory
system.physmem.num_writes::cpu0.inst                0                       # Number of write requests responded to by this memory
system.physmem.num_writes::cpu0.data                0                       # Number of write requests responded to by this memory
system.physmem.num_writes::cpu1.dtb.walker            0                       # Number of write requests responded to by this memory
system.physmem.num_writes::cpu1.itb.walker            0                       # Number of write requests responded to by this memory
system.physmem.num_writes::cpu1.inst                0                       # Number of write requests responded to by this memory
system.physmem.num_writes::cpu1.data                0                       # Number of write requests responded to by this memory
system.physmem.num_writes::cpu2.dtb.walker            0                       # Number of write requests responded to by this memory
system.physmem.num_writes::cpu2.itb.walker            0                       # Number of write requests responded to by this memory
system.physmem.num_writes::cpu2.inst                0                       # Number of write requests responded to by this memory
system.physmem.num_writes::cpu2.data                0                       # Number of write requests responded to by this memory
system.physmem.num_writes::total                 9235                       # Number of write requests responded to by this memory
system.physmem.bw_read::switch_cpus0.inst        18046                       # Total read bandwidth from this memory (bytes/s)
system.physmem.bw_read::switch_cpus0.data      5866230                       # Total read bandwidth from this memory (bytes/s)
system.physmem.bw_read::switch_cpus1.inst        19335                       # Total read bandwidth from this memory (bytes/s)
system.physmem.bw_read::switch_cpus1.data      5288759                       # Total read bandwidth from this memory (bytes/s)
system.physmem.bw_read::switch_cpus2.inst        16757                       # Total read bandwidth from this memory (bytes/s)
system.physmem.bw_read::switch_cpus2.data     22371851                       # Total read bandwidth from this memory (bytes/s)
system.physmem.bw_read::total                33580978                       # Total read bandwidth from this memory (bytes/s)
system.physmem.bw_inst_read::switch_cpus0.inst        18046                       # Instruction read bandwidth from this memory (bytes/s)
system.physmem.bw_inst_read::switch_cpus1.inst        19335                       # Instruction read bandwidth from this memory (bytes/s)
system.physmem.bw_inst_read::switch_cpus2.inst        16757                       # Instruction read bandwidth from this memory (bytes/s)
system.physmem.bw_inst_read::total              54138                       # Instruction read bandwidth from this memory (bytes/s)
system.physmem.bw_write::writebacks          11903897                       # Write bandwidth from this memory (bytes/s)
system.physmem.bw_write::total               11903897                       # Write bandwidth from this memory (bytes/s)
system.physmem.bw_total::writebacks          11903897                       # Total bandwidth to/from this memory (bytes/s)
system.physmem.bw_total::switch_cpus0.inst        18046                       # Total bandwidth to/from this memory (bytes/s)
system.physmem.bw_total::switch_cpus0.data      5866230                       # Total bandwidth to/from this memory (bytes/s)
system.physmem.bw_total::switch_cpus1.inst        19335                       # Total bandwidth to/from this memory (bytes/s)
system.physmem.bw_total::switch_cpus1.data      5288759                       # Total bandwidth to/from this memory (bytes/s)
system.physmem.bw_total::switch_cpus2.inst        16757                       # Total bandwidth to/from this memory (bytes/s)
system.physmem.bw_total::switch_cpus2.data     22371851                       # Total bandwidth to/from this memory (bytes/s)
system.physmem.bw_total::total               45484875                       # Total bandwidth to/from this memory (bytes/s)
system.switch_cpus0.dtb.inst_hits                   0                       # ITB inst hits
system.switch_cpus0.dtb.inst_misses                 0                       # ITB inst misses
system.switch_cpus0.dtb.read_hits                   0                       # DTB read hits
system.switch_cpus0.dtb.read_misses                 0                       # DTB read misses
system.switch_cpus0.dtb.write_hits                  0                       # DTB write hits
system.switch_cpus0.dtb.write_misses                0                       # DTB write misses
system.switch_cpus0.dtb.flush_tlb                   0                       # Number of times complete TLB was flushed
system.switch_cpus0.dtb.flush_tlb_mva               0                       # Number of times TLB was flushed by MVA
system.switch_cpus0.dtb.flush_tlb_mva_asid            0                       # Number of times TLB was flushed by MVA & ASID
system.switch_cpus0.dtb.flush_tlb_asid              0                       # Number of times TLB was flushed by ASID
system.switch_cpus0.dtb.flush_entries               0                       # Number of entries that have been flushed from TLB
system.switch_cpus0.dtb.align_faults                0                       # Number of TLB faults due to alignment restrictions
system.switch_cpus0.dtb.prefetch_faults             0                       # Number of TLB faults due to prefetch
system.switch_cpus0.dtb.domain_faults               0                       # Number of TLB faults due to domain restrictions
system.switch_cpus0.dtb.perms_faults                0                       # Number of TLB faults due to permissions restrictions
system.switch_cpus0.dtb.read_accesses               0                       # DTB read accesses
system.switch_cpus0.dtb.write_accesses              0                       # DTB write accesses
system.switch_cpus0.dtb.inst_accesses               0                       # ITB inst accesses
system.switch_cpus0.dtb.hits                        0                       # DTB hits
system.switch_cpus0.dtb.misses                      0                       # DTB misses
system.switch_cpus0.dtb.accesses                    0                       # DTB accesses
system.switch_cpus0.itb.inst_hits                   0                       # ITB inst hits
system.switch_cpus0.itb.inst_misses                 0                       # ITB inst misses
system.switch_cpus0.itb.read_hits                   0                       # DTB read hits
system.switch_cpus0.itb.read_misses                 0                       # DTB read misses
system.switch_cpus0.itb.write_hits                  0                       # DTB write hits
system.switch_cpus0.itb.write_misses                0                       # DTB write misses
system.switch_cpus0.itb.flush_tlb                   0                       # Number of times complete TLB was flushed
system.switch_cpus0.itb.flush_tlb_mva               0                       # Number of times TLB was flushed by MVA
system.switch_cpus0.itb.flush_tlb_mva_asid            0                       # Number of times TLB was flushed by MVA & ASID
system.switch_cpus0.itb.flush_tlb_asid              0                       # Number of times TLB was flushed by ASID
system.switch_cpus0.itb.flush_entries               0                       # Number of entries that have been flushed from TLB
system.switch_cpus0.itb.align_faults                0                       # Number of TLB faults due to alignment restrictions
system.switch_cpus0.itb.prefetch_faults             0                       # Number of TLB faults due to prefetch
system.switch_cpus0.itb.domain_faults               0                       # Number of TLB faults due to domain restrictions
system.switch_cpus0.itb.perms_faults                0                       # Number of TLB faults due to permissions restrictions
system.switch_cpus0.itb.read_accesses               0                       # DTB read accesses
system.switch_cpus0.itb.write_accesses              0                       # DTB write accesses
system.switch_cpus0.itb.inst_accesses               0                       # ITB inst accesses
system.switch_cpus0.itb.hits                        0                       # DTB hits
system.switch_cpus0.itb.misses                      0                       # DTB misses
system.switch_cpus0.itb.accesses                    0                       # DTB accesses
system.cpu0.workload.num_syscalls                   0                       # Number of system calls
system.switch_cpus0.numCycles               238134132                       # number of cpu cycles simulated
system.switch_cpus0.numWorkItemsStarted             0                       # number of work items this cpu started
system.switch_cpus0.numWorkItemsCompleted            0                       # number of work items this cpu completed
system.switch_cpus0.BPredUnit.lookups        21503330                       # Number of BP lookups
system.switch_cpus0.BPredUnit.condPredicted     17432334                       # Number of conditional branches predicted
system.switch_cpus0.BPredUnit.condIncorrect      1979153                       # Number of conditional branches incorrect
system.switch_cpus0.BPredUnit.BTBLookups      8753281                       # Number of BTB lookups
system.switch_cpus0.BPredUnit.BTBHits         8145150                       # Number of BTB hits
system.switch_cpus0.BPredUnit.BTBCorrect            0                       # Number of correct BTB predictions (this stat may not work properly.
system.switch_cpus0.BPredUnit.usedRAS         2334334                       # Number of times the RAS was used to get a target.
system.switch_cpus0.BPredUnit.RASInCorrect        93650                       # Number of incorrect RAS predictions.
system.switch_cpus0.fetch.icacheStallCycles    186306009                       # Number of cycles fetch is stalled on an Icache miss
system.switch_cpus0.fetch.Insts             119891092                       # Number of instructions fetch has processed
system.switch_cpus0.fetch.Branches           21503330                       # Number of branches that fetch encountered
system.switch_cpus0.fetch.predictedBranches     10479484                       # Number of branches that fetch has predicted taken
system.switch_cpus0.fetch.Cycles             26386593                       # Number of cycles fetch has run and was not squashing or blocked
system.switch_cpus0.fetch.SquashCycles        6032475                       # Number of cycles fetch has spent squashing
system.switch_cpus0.fetch.BlockedCycles       3528773                       # Number of cycles fetch has spent blocked
system.switch_cpus0.fetch.MiscStallCycles            1                       # Number of cycles fetch has spent waiting on interrupts, or bad addresses, or out of MSHRs
system.switch_cpus0.fetch.PendingTrapStallCycles           36                       # Number of stall cycles due to pending traps
system.switch_cpus0.fetch.CacheLines         11511226                       # Number of cache lines fetched
system.switch_cpus0.fetch.IcacheSquashes      1977342                       # Number of outstanding Icache misses that were squashed
system.switch_cpus0.fetch.rateDist::samples    220249196                       # Number of instructions fetched each cycle (Total)
system.switch_cpus0.fetch.rateDist::mean     0.668570                       # Number of instructions fetched each cycle (Total)
system.switch_cpus0.fetch.rateDist::stdev     2.029153                       # Number of instructions fetched each cycle (Total)
system.switch_cpus0.fetch.rateDist::underflows            0      0.00%      0.00% # Number of instructions fetched each cycle (Total)
system.switch_cpus0.fetch.rateDist::0       193862603     88.02%     88.02% # Number of instructions fetched each cycle (Total)
system.switch_cpus0.fetch.rateDist::1         1837919      0.83%     88.85% # Number of instructions fetched each cycle (Total)
system.switch_cpus0.fetch.rateDist::2         3336101      1.51%     90.37% # Number of instructions fetched each cycle (Total)
system.switch_cpus0.fetch.rateDist::3         3089501      1.40%     91.77% # Number of instructions fetched each cycle (Total)
system.switch_cpus0.fetch.rateDist::4         1964573      0.89%     92.66% # Number of instructions fetched each cycle (Total)
system.switch_cpus0.fetch.rateDist::5         1615955      0.73%     93.40% # Number of instructions fetched each cycle (Total)
system.switch_cpus0.fetch.rateDist::6          924590      0.42%     93.82% # Number of instructions fetched each cycle (Total)
system.switch_cpus0.fetch.rateDist::7          955878      0.43%     94.25% # Number of instructions fetched each cycle (Total)
system.switch_cpus0.fetch.rateDist::8        12662076      5.75%    100.00% # Number of instructions fetched each cycle (Total)
system.switch_cpus0.fetch.rateDist::overflows            0      0.00%    100.00% # Number of instructions fetched each cycle (Total)
system.switch_cpus0.fetch.rateDist::min_value            0                       # Number of instructions fetched each cycle (Total)
system.switch_cpus0.fetch.rateDist::max_value            8                       # Number of instructions fetched each cycle (Total)
system.switch_cpus0.fetch.rateDist::total    220249196                       # Number of instructions fetched each cycle (Total)
system.switch_cpus0.fetch.branchRate         0.090299                       # Number of branch fetches per cycle
system.switch_cpus0.fetch.rate               0.503460                       # Number of inst fetches per cycle
system.switch_cpus0.decode.IdleCycles       184404922                       # Number of cycles decode is idle
system.switch_cpus0.decode.BlockedCycles      5446916                       # Number of cycles decode is blocked
system.switch_cpus0.decode.RunCycles         26324228                       # Number of cycles decode is running
system.switch_cpus0.decode.UnblockCycles        45571                       # Number of cycles decode is unblocking
system.switch_cpus0.decode.SquashCycles       4027558                       # Number of cycles decode is squashing
system.switch_cpus0.decode.BranchResolved      3734135                       # Number of times decode resolved a branch
system.switch_cpus0.decode.BranchMispred          226                       # Number of times decode detected a branch misprediction
system.switch_cpus0.decode.DecodedInsts     147155286                       # Number of instructions handled by decode
system.switch_cpus0.decode.SquashedInsts         1293                       # Number of squashed instructions handled by decode
system.switch_cpus0.rename.SquashCycles       4027558                       # Number of cycles rename is squashing
system.switch_cpus0.rename.IdleCycles       184877118                       # Number of cycles rename is idle
system.switch_cpus0.rename.BlockCycles        1211634                       # Number of cycles rename is blocking
system.switch_cpus0.rename.serializeStallCycles      3148518                       # count of cycles rename stalled for serializing inst
system.switch_cpus0.rename.RunCycles         25868844                       # Number of cycles rename is running
system.switch_cpus0.rename.UnblockCycles      1115523                       # Number of cycles rename is unblocking
system.switch_cpus0.rename.RenamedInsts     147031656                       # Number of instructions processed by rename
system.switch_cpus0.rename.IQFullEvents        188152                       # Number of times rename has blocked due to IQ full
system.switch_cpus0.rename.LSQFullEvents       478824                       # Number of times rename has blocked due to LSQ full
system.switch_cpus0.rename.RenamedOperands    208567645                       # Number of destination operands rename has renamed
system.switch_cpus0.rename.RenameLookups    684891111                       # Number of register rename lookups that rename has made
system.switch_cpus0.rename.int_rename_lookups    684891111                       # Number of integer rename lookups
system.switch_cpus0.rename.CommittedMaps    171704513                       # Number of HB maps that are committed
system.switch_cpus0.rename.UndoneMaps        36863123                       # Number of HB maps that are undone due to squashing
system.switch_cpus0.rename.serializingInsts        33814                       # count of serializing insts renamed
system.switch_cpus0.rename.tempSerializingInsts        16907                       # count of temporary serializing insts renamed
system.switch_cpus0.rename.skidInsts          4110200                       # count of insts added to the skid buffer
system.switch_cpus0.memDep0.insertedLoads     13863629                       # Number of loads inserted to the mem dependence unit.
system.switch_cpus0.memDep0.insertedStores      7183508                       # Number of stores inserted to the mem dependence unit.
system.switch_cpus0.memDep0.conflictingLoads        82039                       # Number of conflicting loads.
system.switch_cpus0.memDep0.conflictingStores      1597538                       # Number of conflicting stores.
system.switch_cpus0.iq.iqInstsAdded         146069524                       # Number of instructions added to the IQ (excludes non-spec)
system.switch_cpus0.iq.iqNonSpecInstsAdded        33814                       # Number of non-speculative instructions added to the IQ
system.switch_cpus0.iq.iqInstsIssued        137965712                       # Number of instructions issued
system.switch_cpus0.iq.iqSquashedInstsIssued       116764                       # Number of squashed instructions issued
system.switch_cpus0.iq.iqSquashedInstsExamined     22007153                       # Number of squashed instructions iterated over during squash; mainly for profiling
system.switch_cpus0.iq.iqSquashedOperandsExamined     46232604                       # Number of squashed operands that are examined and possibly removed from graph
system.switch_cpus0.iq.issued_per_cycle::samples    220249196                       # Number of insts issued each cycle
system.switch_cpus0.iq.issued_per_cycle::mean     0.626407                       # Number of insts issued each cycle
system.switch_cpus0.iq.issued_per_cycle::stdev     1.299504                       # Number of insts issued each cycle
system.switch_cpus0.iq.issued_per_cycle::underflows            0      0.00%      0.00% # Number of insts issued each cycle
system.switch_cpus0.iq.issued_per_cycle::0    160758605     72.99%     72.99% # Number of insts issued each cycle
system.switch_cpus0.iq.issued_per_cycle::1     25180025     11.43%     84.42% # Number of insts issued each cycle
system.switch_cpus0.iq.issued_per_cycle::2     13546069      6.15%     90.57% # Number of insts issued each cycle
system.switch_cpus0.iq.issued_per_cycle::3      6866851      3.12%     93.69% # Number of insts issued each cycle
system.switch_cpus0.iq.issued_per_cycle::4      8184196      3.72%     97.41% # Number of insts issued each cycle
system.switch_cpus0.iq.issued_per_cycle::5      2648121      1.20%     98.61% # Number of insts issued each cycle
system.switch_cpus0.iq.issued_per_cycle::6      2484040      1.13%     99.74% # Number of insts issued each cycle
system.switch_cpus0.iq.issued_per_cycle::7       438945      0.20%     99.94% # Number of insts issued each cycle
system.switch_cpus0.iq.issued_per_cycle::8       142344      0.06%    100.00% # Number of insts issued each cycle
system.switch_cpus0.iq.issued_per_cycle::overflows            0      0.00%    100.00% # Number of insts issued each cycle
system.switch_cpus0.iq.issued_per_cycle::min_value            0                       # Number of insts issued each cycle
system.switch_cpus0.iq.issued_per_cycle::max_value            8                       # Number of insts issued each cycle
system.switch_cpus0.iq.issued_per_cycle::total    220249196                       # Number of insts issued each cycle
system.switch_cpus0.iq.fu_full::No_OpClass            0      0.00%      0.00% # attempts to use FU when none available
system.switch_cpus0.iq.fu_full::IntAlu         416742     59.73%     59.73% # attempts to use FU when none available
system.switch_cpus0.iq.fu_full::IntMult             0      0.00%     59.73% # attempts to use FU when none available
system.switch_cpus0.iq.fu_full::IntDiv              0      0.00%     59.73% # attempts to use FU when none available
system.switch_cpus0.iq.fu_full::FloatAdd            0      0.00%     59.73% # attempts to use FU when none available
system.switch_cpus0.iq.fu_full::FloatCmp            0      0.00%     59.73% # attempts to use FU when none available
system.switch_cpus0.iq.fu_full::FloatCvt            0      0.00%     59.73% # attempts to use FU when none available
system.switch_cpus0.iq.fu_full::FloatMult            0      0.00%     59.73% # attempts to use FU when none available
system.switch_cpus0.iq.fu_full::FloatDiv            0      0.00%     59.73% # attempts to use FU when none available
system.switch_cpus0.iq.fu_full::FloatSqrt            0      0.00%     59.73% # attempts to use FU when none available
system.switch_cpus0.iq.fu_full::SimdAdd             0      0.00%     59.73% # attempts to use FU when none available
system.switch_cpus0.iq.fu_full::SimdAddAcc            0      0.00%     59.73% # attempts to use FU when none available
system.switch_cpus0.iq.fu_full::SimdAlu             0      0.00%     59.73% # attempts to use FU when none available
system.switch_cpus0.iq.fu_full::SimdCmp             0      0.00%     59.73% # attempts to use FU when none available
system.switch_cpus0.iq.fu_full::SimdCvt             0      0.00%     59.73% # attempts to use FU when none available
system.switch_cpus0.iq.fu_full::SimdMisc            0      0.00%     59.73% # attempts to use FU when none available
system.switch_cpus0.iq.fu_full::SimdMult            0      0.00%     59.73% # attempts to use FU when none available
system.switch_cpus0.iq.fu_full::SimdMultAcc            0      0.00%     59.73% # attempts to use FU when none available
system.switch_cpus0.iq.fu_full::SimdShift            0      0.00%     59.73% # attempts to use FU when none available
system.switch_cpus0.iq.fu_full::SimdShiftAcc            0      0.00%     59.73% # attempts to use FU when none available
system.switch_cpus0.iq.fu_full::SimdSqrt            0      0.00%     59.73% # attempts to use FU when none available
system.switch_cpus0.iq.fu_full::SimdFloatAdd            0      0.00%     59.73% # attempts to use FU when none available
system.switch_cpus0.iq.fu_full::SimdFloatAlu            0      0.00%     59.73% # attempts to use FU when none available
system.switch_cpus0.iq.fu_full::SimdFloatCmp            0      0.00%     59.73% # attempts to use FU when none available
system.switch_cpus0.iq.fu_full::SimdFloatCvt            0      0.00%     59.73% # attempts to use FU when none available
system.switch_cpus0.iq.fu_full::SimdFloatDiv            0      0.00%     59.73% # attempts to use FU when none available
system.switch_cpus0.iq.fu_full::SimdFloatMisc            0      0.00%     59.73% # attempts to use FU when none available
system.switch_cpus0.iq.fu_full::SimdFloatMult            0      0.00%     59.73% # attempts to use FU when none available
system.switch_cpus0.iq.fu_full::SimdFloatMultAcc            0      0.00%     59.73% # attempts to use FU when none available
system.switch_cpus0.iq.fu_full::SimdFloatSqrt            0      0.00%     59.73% # attempts to use FU when none available
system.switch_cpus0.iq.fu_full::MemRead        143136     20.52%     80.25% # attempts to use FU when none available
system.switch_cpus0.iq.fu_full::MemWrite       137819     19.75%    100.00% # attempts to use FU when none available
system.switch_cpus0.iq.fu_full::IprAccess            0      0.00%    100.00% # attempts to use FU when none available
system.switch_cpus0.iq.fu_full::InstPrefetch            0      0.00%    100.00% # attempts to use FU when none available
system.switch_cpus0.iq.FU_type_0::No_OpClass            0      0.00%      0.00% # Type of FU issued
system.switch_cpus0.iq.FU_type_0::IntAlu    116019645     84.09%     84.09% # Type of FU issued
system.switch_cpus0.iq.FU_type_0::IntMult      1978149      1.43%     85.53% # Type of FU issued
system.switch_cpus0.iq.FU_type_0::IntDiv            0      0.00%     85.53% # Type of FU issued
system.switch_cpus0.iq.FU_type_0::FloatAdd            0      0.00%     85.53% # Type of FU issued
system.switch_cpus0.iq.FU_type_0::FloatCmp            0      0.00%     85.53% # Type of FU issued
system.switch_cpus0.iq.FU_type_0::FloatCvt            0      0.00%     85.53% # Type of FU issued
system.switch_cpus0.iq.FU_type_0::FloatMult            0      0.00%     85.53% # Type of FU issued
system.switch_cpus0.iq.FU_type_0::FloatDiv            0      0.00%     85.53% # Type of FU issued
system.switch_cpus0.iq.FU_type_0::FloatSqrt            0      0.00%     85.53% # Type of FU issued
system.switch_cpus0.iq.FU_type_0::SimdAdd            0      0.00%     85.53% # Type of FU issued
system.switch_cpus0.iq.FU_type_0::SimdAddAcc            0      0.00%     85.53% # Type of FU issued
system.switch_cpus0.iq.FU_type_0::SimdAlu            0      0.00%     85.53% # Type of FU issued
system.switch_cpus0.iq.FU_type_0::SimdCmp            0      0.00%     85.53% # Type of FU issued
system.switch_cpus0.iq.FU_type_0::SimdCvt            0      0.00%     85.53% # Type of FU issued
system.switch_cpus0.iq.FU_type_0::SimdMisc            0      0.00%     85.53% # Type of FU issued
system.switch_cpus0.iq.FU_type_0::SimdMult            0      0.00%     85.53% # Type of FU issued
system.switch_cpus0.iq.FU_type_0::SimdMultAcc            0      0.00%     85.53% # Type of FU issued
system.switch_cpus0.iq.FU_type_0::SimdShift            0      0.00%     85.53% # Type of FU issued
system.switch_cpus0.iq.FU_type_0::SimdShiftAcc            0      0.00%     85.53% # Type of FU issued
system.switch_cpus0.iq.FU_type_0::SimdSqrt            0      0.00%     85.53% # Type of FU issued
system.switch_cpus0.iq.FU_type_0::SimdFloatAdd            0      0.00%     85.53% # Type of FU issued
system.switch_cpus0.iq.FU_type_0::SimdFloatAlu            0      0.00%     85.53% # Type of FU issued
system.switch_cpus0.iq.FU_type_0::SimdFloatCmp            0      0.00%     85.53% # Type of FU issued
system.switch_cpus0.iq.FU_type_0::SimdFloatCvt            0      0.00%     85.53% # Type of FU issued
system.switch_cpus0.iq.FU_type_0::SimdFloatDiv            0      0.00%     85.53% # Type of FU issued
system.switch_cpus0.iq.FU_type_0::SimdFloatMisc        16907      0.01%     85.54% # Type of FU issued
system.switch_cpus0.iq.FU_type_0::SimdFloatMult            0      0.00%     85.54% # Type of FU issued
system.switch_cpus0.iq.FU_type_0::SimdFloatMultAcc            0      0.00%     85.54% # Type of FU issued
system.switch_cpus0.iq.FU_type_0::SimdFloatSqrt            0      0.00%     85.54% # Type of FU issued
system.switch_cpus0.iq.FU_type_0::MemRead     12790112      9.27%     94.81% # Type of FU issued
system.switch_cpus0.iq.FU_type_0::MemWrite      7160899      5.19%    100.00% # Type of FU issued
system.switch_cpus0.iq.FU_type_0::IprAccess            0      0.00%    100.00% # Type of FU issued
system.switch_cpus0.iq.FU_type_0::InstPrefetch            0      0.00%    100.00% # Type of FU issued
system.switch_cpus0.iq.FU_type_0::total     137965712                       # Type of FU issued
system.switch_cpus0.iq.rate                  0.579361                       # Inst issue rate
system.switch_cpus0.iq.fu_busy_cnt             697697                       # FU busy when requested
system.switch_cpus0.iq.fu_busy_rate          0.005057                       # FU busy rate (busy events/executed inst)
system.switch_cpus0.iq.int_inst_queue_reads    496995080                       # Number of integer instruction queue reads
system.switch_cpus0.iq.int_inst_queue_writes    168110700                       # Number of integer instruction queue writes
system.switch_cpus0.iq.int_inst_queue_wakeup_accesses    134981718                       # Number of integer instruction queue wakeup accesses
system.switch_cpus0.iq.fp_inst_queue_reads            0                       # Number of floating instruction queue reads
system.switch_cpus0.iq.fp_inst_queue_writes            0                       # Number of floating instruction queue writes
system.switch_cpus0.iq.fp_inst_queue_wakeup_accesses            0                       # Number of floating instruction queue wakeup accesses
system.switch_cpus0.iq.int_alu_accesses     138663409                       # Number of integer alu accesses
system.switch_cpus0.iq.fp_alu_accesses              0                       # Number of floating point alu accesses
system.switch_cpus0.iew.lsq.thread0.forwLoads       268190                       # Number of loads that had data forwarded from stores
system.switch_cpus0.iew.lsq.thread0.invAddrLoads            0                       # Number of loads ignored due to an invalid address
system.switch_cpus0.iew.lsq.thread0.squashedLoads      2670208                       # Number of loads squashed
system.switch_cpus0.iew.lsq.thread0.ignoredResponses            5                       # Number of memory responses ignored because the instruction is squashed
system.switch_cpus0.iew.lsq.thread0.memOrderViolation          209                       # Number of memory ordering violations
system.switch_cpus0.iew.lsq.thread0.squashedStores        92480                       # Number of stores squashed
system.switch_cpus0.iew.lsq.thread0.invAddrSwpfs            0                       # Number of software prefetches ignored due to an invalid address
system.switch_cpus0.iew.lsq.thread0.blockedLoads            0                       # Number of blocked loads due to partial load-store forwarding
system.switch_cpus0.iew.lsq.thread0.rescheduledLoads            0                       # Number of loads that were rescheduled
system.switch_cpus0.iew.lsq.thread0.cacheBlocked            0                       # Number of times an access to memory failed due to the cache being blocked
system.switch_cpus0.iew.iewIdleCycles               0                       # Number of cycles IEW is idle
system.switch_cpus0.iew.iewSquashCycles       4027558                       # Number of cycles IEW is squashing
system.switch_cpus0.iew.iewBlockCycles         819195                       # Number of cycles IEW is blocking
system.switch_cpus0.iew.iewUnblockCycles       114295                       # Number of cycles IEW is unblocking
system.switch_cpus0.iew.iewDispatchedInsts    146103341                       # Number of instructions dispatched to IQ
system.switch_cpus0.iew.iewDispSquashedInsts         8502                       # Number of squashed instructions skipped by dispatch
system.switch_cpus0.iew.iewDispLoadInsts     13863629                       # Number of dispatched load instructions
system.switch_cpus0.iew.iewDispStoreInsts      7183508                       # Number of dispatched store instructions
system.switch_cpus0.iew.iewDispNonSpecInsts        16907                       # Number of dispatched non-speculative instructions
system.switch_cpus0.iew.iewIQFullEvents         99133                       # Number of times the IQ has become full, causing a stall
system.switch_cpus0.iew.iewLSQFullEvents            0                       # Number of times the LSQ has become full, causing a stall
system.switch_cpus0.iew.memOrderViolationEvents          209                       # Number of memory order violations
system.switch_cpus0.iew.predictedTakenIncorrect      1056654                       # Number of branches that were predicted taken incorrectly
system.switch_cpus0.iew.predictedNotTakenIncorrect      1102059                       # Number of branches that were predicted not taken incorrectly
system.switch_cpus0.iew.branchMispredicts      2158713                       # Number of branch mispredicts detected at execute
system.switch_cpus0.iew.iewExecutedInsts    135975479                       # Number of executed instructions
system.switch_cpus0.iew.iewExecLoadInsts     12339644                       # Number of load instructions executed
system.switch_cpus0.iew.iewExecSquashedInsts      1990232                       # Number of squashed instructions skipped in execute
system.switch_cpus0.iew.exec_swp                    0                       # number of swp insts executed
system.switch_cpus0.iew.exec_nop                    3                       # number of nop insts executed
system.switch_cpus0.iew.exec_refs            19500396                       # number of memory reference insts executed
system.switch_cpus0.iew.exec_branches        19195444                       # Number of branches executed
system.switch_cpus0.iew.exec_stores           7160752                       # Number of stores executed
system.switch_cpus0.iew.exec_rate            0.571004                       # Inst execution rate
system.switch_cpus0.iew.wb_sent             134981763                       # cumulative count of insts sent to commit
system.switch_cpus0.iew.wb_count            134981718                       # cumulative count of insts written-back
system.switch_cpus0.iew.wb_producers         77883097                       # num instructions producing a value
system.switch_cpus0.iew.wb_consumers        216943747                       # num instructions consuming a value
system.switch_cpus0.iew.wb_penalized                0                       # number of instrctions required to write to 'other' IQ
system.switch_cpus0.iew.wb_rate              0.566831                       # insts written-back per cycle
system.switch_cpus0.iew.wb_fanout            0.359001                       # average fanout of values written-back
system.switch_cpus0.iew.wb_penalized_rate            0                       # fraction of instructions written-back that wrote to 'other' IQ
system.switch_cpus0.commit.commitCommittedInsts    100000001                       # The number of committed instructions
system.switch_cpus0.commit.commitCommittedOps    123129333                       # The number of committed instructions
system.switch_cpus0.commit.commitSquashedInsts     22974396                       # The number of squashed insts skipped by commit
system.switch_cpus0.commit.commitNonSpecStalls        33814                       # The number of times commit has been forced to stall to communicate backwards
system.switch_cpus0.commit.branchMispredicts      2004289                       # The number of times a branch was mispredicted
system.switch_cpus0.commit.committed_per_cycle::samples    216221638                       # Number of insts commited each cycle
system.switch_cpus0.commit.committed_per_cycle::mean     0.569459                       # Number of insts commited each cycle
system.switch_cpus0.commit.committed_per_cycle::stdev     1.369152                       # Number of insts commited each cycle
system.switch_cpus0.commit.committed_per_cycle::underflows            0      0.00%      0.00% # Number of insts commited each cycle
system.switch_cpus0.commit.committed_per_cycle::0    164369536     76.02%     76.02% # Number of insts commited each cycle
system.switch_cpus0.commit.committed_per_cycle::1     23868356     11.04%     87.06% # Number of insts commited each cycle
system.switch_cpus0.commit.committed_per_cycle::2     12381161      5.73%     92.78% # Number of insts commited each cycle
system.switch_cpus0.commit.committed_per_cycle::3      3980294      1.84%     94.62% # Number of insts commited each cycle
system.switch_cpus0.commit.committed_per_cycle::4      5464470      2.53%     97.15% # Number of insts commited each cycle
system.switch_cpus0.commit.committed_per_cycle::5      1836376      0.85%     98.00% # Number of insts commited each cycle
system.switch_cpus0.commit.committed_per_cycle::6      1057757      0.49%     98.49% # Number of insts commited each cycle
system.switch_cpus0.commit.committed_per_cycle::7       938033      0.43%     98.92% # Number of insts commited each cycle
system.switch_cpus0.commit.committed_per_cycle::8      2325655      1.08%    100.00% # Number of insts commited each cycle
system.switch_cpus0.commit.committed_per_cycle::overflows            0      0.00%    100.00% # Number of insts commited each cycle
system.switch_cpus0.commit.committed_per_cycle::min_value            0                       # Number of insts commited each cycle
system.switch_cpus0.commit.committed_per_cycle::max_value            8                       # Number of insts commited each cycle
system.switch_cpus0.commit.committed_per_cycle::total    216221638                       # Number of insts commited each cycle
system.switch_cpus0.commit.committedInsts    100000001                       # Number of instructions committed
system.switch_cpus0.commit.committedOps     123129333                       # Number of ops (including micro ops) committed
system.switch_cpus0.commit.swp_count                0                       # Number of s/w prefetches committed
system.switch_cpus0.commit.refs              18284449                       # Number of memory references committed
system.switch_cpus0.commit.loads             11193421                       # Number of loads committed
system.switch_cpus0.commit.membars              16907                       # Number of memory barriers committed
system.switch_cpus0.commit.branches          17772297                       # Number of branches committed
system.switch_cpus0.commit.fp_insts                 0                       # Number of committed floating point instructions.
system.switch_cpus0.commit.int_insts        110930175                       # Number of committed integer instructions.
system.switch_cpus0.commit.function_calls      2539549                       # Number of function calls committed.
system.switch_cpus0.commit.bw_lim_events      2325655                       # number cycles where commit BW limit reached
system.switch_cpus0.commit.bw_limited               0                       # number of insts not committed due to BW limits
system.switch_cpus0.rob.rob_reads           359999712                       # The number of ROB reads
system.switch_cpus0.rob.rob_writes          296235046                       # The number of ROB writes
system.switch_cpus0.timesIdled                2882674                       # Number of times that the entire CPU went into an idle state and unscheduled itself
system.switch_cpus0.idleCycles               17884936                       # Total number of cycles that the CPU has spent unscheduled due to idling
system.switch_cpus0.committedInsts          100000001                       # Number of Instructions Simulated
system.switch_cpus0.committedOps            123129333                       # Number of Ops (including micro ops) Simulated
system.switch_cpus0.committedInsts_total    100000001                       # Number of Instructions Simulated
system.switch_cpus0.cpi                      2.381341                       # CPI: Cycles Per Instruction
system.switch_cpus0.cpi_total                2.381341                       # CPI: Total CPI of All Threads
system.switch_cpus0.ipc                      0.419931                       # IPC: Instructions Per Cycle
system.switch_cpus0.ipc_total                0.419931                       # IPC: Total IPC of All Threads
system.switch_cpus0.int_regfile_reads       611581769                       # number of integer regfile reads
system.switch_cpus0.int_regfile_writes      188898958                       # number of integer regfile writes
system.switch_cpus0.misc_regfile_reads      135815477                       # number of misc regfile reads
system.switch_cpus0.misc_regfile_writes         33814                       # number of misc regfile writes
system.switch_cpus1.dtb.inst_hits                   0                       # ITB inst hits
system.switch_cpus1.dtb.inst_misses                 0                       # ITB inst misses
system.switch_cpus1.dtb.read_hits                   0                       # DTB read hits
system.switch_cpus1.dtb.read_misses                 0                       # DTB read misses
system.switch_cpus1.dtb.write_hits                  0                       # DTB write hits
system.switch_cpus1.dtb.write_misses                0                       # DTB write misses
system.switch_cpus1.dtb.flush_tlb                   0                       # Number of times complete TLB was flushed
system.switch_cpus1.dtb.flush_tlb_mva               0                       # Number of times TLB was flushed by MVA
system.switch_cpus1.dtb.flush_tlb_mva_asid            0                       # Number of times TLB was flushed by MVA & ASID
system.switch_cpus1.dtb.flush_tlb_asid              0                       # Number of times TLB was flushed by ASID
system.switch_cpus1.dtb.flush_entries               0                       # Number of entries that have been flushed from TLB
system.switch_cpus1.dtb.align_faults                0                       # Number of TLB faults due to alignment restrictions
system.switch_cpus1.dtb.prefetch_faults             0                       # Number of TLB faults due to prefetch
system.switch_cpus1.dtb.domain_faults               0                       # Number of TLB faults due to domain restrictions
system.switch_cpus1.dtb.perms_faults                0                       # Number of TLB faults due to permissions restrictions
system.switch_cpus1.dtb.read_accesses               0                       # DTB read accesses
system.switch_cpus1.dtb.write_accesses              0                       # DTB write accesses
system.switch_cpus1.dtb.inst_accesses               0                       # ITB inst accesses
system.switch_cpus1.dtb.hits                        0                       # DTB hits
system.switch_cpus1.dtb.misses                      0                       # DTB misses
system.switch_cpus1.dtb.accesses                    0                       # DTB accesses
system.switch_cpus1.itb.inst_hits                   0                       # ITB inst hits
system.switch_cpus1.itb.inst_misses                 0                       # ITB inst misses
system.switch_cpus1.itb.read_hits                   0                       # DTB read hits
system.switch_cpus1.itb.read_misses                 0                       # DTB read misses
system.switch_cpus1.itb.write_hits                  0                       # DTB write hits
system.switch_cpus1.itb.write_misses                0                       # DTB write misses
system.switch_cpus1.itb.flush_tlb                   0                       # Number of times complete TLB was flushed
system.switch_cpus1.itb.flush_tlb_mva               0                       # Number of times TLB was flushed by MVA
system.switch_cpus1.itb.flush_tlb_mva_asid            0                       # Number of times TLB was flushed by MVA & ASID
system.switch_cpus1.itb.flush_tlb_asid              0                       # Number of times TLB was flushed by ASID
system.switch_cpus1.itb.flush_entries               0                       # Number of entries that have been flushed from TLB
system.switch_cpus1.itb.align_faults                0                       # Number of TLB faults due to alignment restrictions
system.switch_cpus1.itb.prefetch_faults             0                       # Number of TLB faults due to prefetch
system.switch_cpus1.itb.domain_faults               0                       # Number of TLB faults due to domain restrictions
system.switch_cpus1.itb.perms_faults                0                       # Number of TLB faults due to permissions restrictions
system.switch_cpus1.itb.read_accesses               0                       # DTB read accesses
system.switch_cpus1.itb.write_accesses              0                       # DTB write accesses
system.switch_cpus1.itb.inst_accesses               0                       # ITB inst accesses
system.switch_cpus1.itb.hits                        0                       # DTB hits
system.switch_cpus1.itb.misses                      0                       # DTB misses
system.switch_cpus1.itb.accesses                    0                       # DTB accesses
system.cpu1.workload.num_syscalls                   0                       # Number of system calls
system.switch_cpus1.numCycles               238134132                       # number of cpu cycles simulated
system.switch_cpus1.numWorkItemsStarted             0                       # number of work items this cpu started
system.switch_cpus1.numWorkItemsCompleted            0                       # number of work items this cpu completed
system.switch_cpus1.BPredUnit.lookups        21260865                       # Number of BP lookups
system.switch_cpus1.BPredUnit.condPredicted     17445624                       # Number of conditional branches predicted
system.switch_cpus1.BPredUnit.condIncorrect      1986849                       # Number of conditional branches incorrect
system.switch_cpus1.BPredUnit.BTBLookups      9000062                       # Number of BTB lookups
system.switch_cpus1.BPredUnit.BTBHits         8369747                       # Number of BTB hits
system.switch_cpus1.BPredUnit.BTBCorrect            0                       # Number of correct BTB predictions (this stat may not work properly.
system.switch_cpus1.BPredUnit.usedRAS         2121468                       # Number of times the RAS was used to get a target.
system.switch_cpus1.BPredUnit.RASInCorrect        93543                       # Number of incorrect RAS predictions.
system.switch_cpus1.fetch.icacheStallCycles    190711271                       # Number of cycles fetch is stalled on an Icache miss
system.switch_cpus1.fetch.Insts             116636855                       # Number of instructions fetch has processed
system.switch_cpus1.fetch.Branches           21260865                       # Number of branches that fetch encountered
system.switch_cpus1.fetch.predictedBranches     10491215                       # Number of branches that fetch has predicted taken
system.switch_cpus1.fetch.Cycles             25148497                       # Number of cycles fetch has run and was not squashing or blocked
system.switch_cpus1.fetch.SquashCycles        5498272                       # Number of cycles fetch has spent squashing
system.switch_cpus1.fetch.BlockedCycles       5874972                       # Number of cycles fetch has spent blocked
system.switch_cpus1.fetch.CacheLines         11531408                       # Number of cache lines fetched
system.switch_cpus1.fetch.IcacheSquashes      1978060                       # Number of outstanding Icache misses that were squashed
system.switch_cpus1.fetch.rateDist::samples    225228949                       # Number of instructions fetched each cycle (Total)
system.switch_cpus1.fetch.rateDist::mean     0.635215                       # Number of instructions fetched each cycle (Total)
system.switch_cpus1.fetch.rateDist::stdev     1.996279                       # Number of instructions fetched each cycle (Total)
system.switch_cpus1.fetch.rateDist::underflows            0      0.00%      0.00% # Number of instructions fetched each cycle (Total)
system.switch_cpus1.fetch.rateDist::0       200080452     88.83%     88.83% # Number of instructions fetched each cycle (Total)
system.switch_cpus1.fetch.rateDist::1         1872914      0.83%     89.67% # Number of instructions fetched each cycle (Total)
system.switch_cpus1.fetch.rateDist::2         3393848      1.51%     91.17% # Number of instructions fetched each cycle (Total)
system.switch_cpus1.fetch.rateDist::3         2005668      0.89%     92.06% # Number of instructions fetched each cycle (Total)
system.switch_cpus1.fetch.rateDist::4         1644661      0.73%     92.79% # Number of instructions fetched each cycle (Total)
system.switch_cpus1.fetch.rateDist::5         1463552      0.65%     93.44% # Number of instructions fetched each cycle (Total)
system.switch_cpus1.fetch.rateDist::6          811419      0.36%     93.80% # Number of instructions fetched each cycle (Total)
system.switch_cpus1.fetch.rateDist::7         2025297      0.90%     94.70% # Number of instructions fetched each cycle (Total)
system.switch_cpus1.fetch.rateDist::8        11931138      5.30%    100.00% # Number of instructions fetched each cycle (Total)
system.switch_cpus1.fetch.rateDist::overflows            0      0.00%    100.00% # Number of instructions fetched each cycle (Total)
system.switch_cpus1.fetch.rateDist::min_value            0                       # Number of instructions fetched each cycle (Total)
system.switch_cpus1.fetch.rateDist::max_value            8                       # Number of instructions fetched each cycle (Total)
system.switch_cpus1.fetch.rateDist::total    225228949                       # Number of instructions fetched each cycle (Total)
system.switch_cpus1.fetch.branchRate         0.089281                       # Number of branch fetches per cycle
system.switch_cpus1.fetch.rate               0.489795                       # Number of inst fetches per cycle
system.switch_cpus1.decode.IdleCycles       189142338                       # Number of cycles decode is idle
system.switch_cpus1.decode.BlockedCycles      7455863                       # Number of cycles decode is blocked
system.switch_cpus1.decode.RunCycles         25075071                       # Number of cycles decode is running
system.switch_cpus1.decode.UnblockCycles        61664                       # Number of cycles decode is unblocking
system.switch_cpus1.decode.SquashCycles       3494002                       # Number of cycles decode is squashing
system.switch_cpus1.decode.BranchResolved      3495131                       # Number of times decode resolved a branch
system.switch_cpus1.decode.BranchMispred          207                       # Number of times decode detected a branch misprediction
system.switch_cpus1.decode.DecodedInsts     143008229                       # Number of instructions handled by decode
system.switch_cpus1.decode.SquashedInsts         1184                       # Number of squashed instructions handled by decode
system.switch_cpus1.rename.SquashCycles       3494002                       # Number of cycles rename is squashing
system.switch_cpus1.rename.IdleCycles       189422017                       # Number of cycles rename is idle
system.switch_cpus1.rename.BlockCycles         656867                       # Number of cycles rename is blocking
system.switch_cpus1.rename.serializeStallCycles      5943147                       # count of cycles rename stalled for serializing inst
system.switch_cpus1.rename.RunCycles         24840699                       # Number of cycles rename is running
system.switch_cpus1.rename.UnblockCycles       872208                       # Number of cycles rename is unblocking
system.switch_cpus1.rename.RenamedInsts     142964181                       # Number of instructions processed by rename
system.switch_cpus1.rename.IQFullEvents         95416                       # Number of times rename has blocked due to IQ full
system.switch_cpus1.rename.LSQFullEvents       503636                       # Number of times rename has blocked due to LSQ full
system.switch_cpus1.rename.RenamedOperands    201436261                       # Number of destination operands rename has renamed
system.switch_cpus1.rename.RenameLookups    663483644                       # Number of register rename lookups that rename has made
system.switch_cpus1.rename.int_rename_lookups    663483644                       # Number of integer rename lookups
system.switch_cpus1.rename.CommittedMaps    171261844                       # Number of HB maps that are committed
system.switch_cpus1.rename.UndoneMaps        30174410                       # Number of HB maps that are undone due to squashing
system.switch_cpus1.rename.serializingInsts        34077                       # count of serializing insts renamed
system.switch_cpus1.rename.tempSerializingInsts        17062                       # count of temporary serializing insts renamed
system.switch_cpus1.rename.skidInsts          2521354                       # count of insts added to the skid buffer
system.switch_cpus1.memDep0.insertedLoads     13264458                       # Number of loads inserted to the mem dependence unit.
system.switch_cpus1.memDep0.insertedStores      7162413                       # Number of stores inserted to the mem dependence unit.
system.switch_cpus1.memDep0.conflictingLoads        69698                       # Number of conflicting loads.
system.switch_cpus1.memDep0.conflictingStores      1622009                       # Number of conflicting stores.
system.switch_cpus1.iq.iqInstsAdded         141882756                       # Number of instructions added to the IQ (excludes non-spec)
system.switch_cpus1.iq.iqNonSpecInstsAdded        34078                       # Number of non-speculative instructions added to the IQ
system.switch_cpus1.iq.iqInstsIssued        135366878                       # Number of instructions issued
system.switch_cpus1.iq.iqSquashedInstsIssued        63535                       # Number of squashed instructions issued
system.switch_cpus1.iq.iqSquashedInstsExamined     16686210                       # Number of squashed instructions iterated over during squash; mainly for profiling
system.switch_cpus1.iq.iqSquashedOperandsExamined     34349457                       # Number of squashed operands that are examined and possibly removed from graph
system.switch_cpus1.iq.iqSquashedNonSpecRemoved           46                       # Number of squashed non-spec instructions that were removed
system.switch_cpus1.iq.issued_per_cycle::samples    225228949                       # Number of insts issued each cycle
system.switch_cpus1.iq.issued_per_cycle::mean     0.601019                       # Number of insts issued each cycle
system.switch_cpus1.iq.issued_per_cycle::stdev     1.288231                       # Number of insts issued each cycle
system.switch_cpus1.iq.issued_per_cycle::underflows            0      0.00%      0.00% # Number of insts issued each cycle
system.switch_cpus1.iq.issued_per_cycle::0    168852136     74.97%     74.97% # Number of insts issued each cycle
system.switch_cpus1.iq.issued_per_cycle::1     22439908      9.96%     84.93% # Number of insts issued each cycle
system.switch_cpus1.iq.issued_per_cycle::2     11742239      5.21%     90.15% # Number of insts issued each cycle
system.switch_cpus1.iq.issued_per_cycle::3      8270209      3.67%     93.82% # Number of insts issued each cycle
system.switch_cpus1.iq.issued_per_cycle::4      8275772      3.67%     97.49% # Number of insts issued each cycle
system.switch_cpus1.iq.issued_per_cycle::5      2959973      1.31%     98.81% # Number of insts issued each cycle
system.switch_cpus1.iq.issued_per_cycle::6      2258172      1.00%     99.81% # Number of insts issued each cycle
system.switch_cpus1.iq.issued_per_cycle::7       264440      0.12%     99.93% # Number of insts issued each cycle
system.switch_cpus1.iq.issued_per_cycle::8       166100      0.07%    100.00% # Number of insts issued each cycle
system.switch_cpus1.iq.issued_per_cycle::overflows            0      0.00%    100.00% # Number of insts issued each cycle
system.switch_cpus1.iq.issued_per_cycle::min_value            0                       # Number of insts issued each cycle
system.switch_cpus1.iq.issued_per_cycle::max_value            8                       # Number of insts issued each cycle
system.switch_cpus1.iq.issued_per_cycle::total    225228949                       # Number of insts issued each cycle
system.switch_cpus1.iq.fu_full::No_OpClass            0      0.00%      0.00% # attempts to use FU when none available
system.switch_cpus1.iq.fu_full::IntAlu          49691     13.71%     13.71% # attempts to use FU when none available
system.switch_cpus1.iq.fu_full::IntMult             0      0.00%     13.71% # attempts to use FU when none available
system.switch_cpus1.iq.fu_full::IntDiv              0      0.00%     13.71% # attempts to use FU when none available
system.switch_cpus1.iq.fu_full::FloatAdd            0      0.00%     13.71% # attempts to use FU when none available
system.switch_cpus1.iq.fu_full::FloatCmp            0      0.00%     13.71% # attempts to use FU when none available
system.switch_cpus1.iq.fu_full::FloatCvt            0      0.00%     13.71% # attempts to use FU when none available
system.switch_cpus1.iq.fu_full::FloatMult            0      0.00%     13.71% # attempts to use FU when none available
system.switch_cpus1.iq.fu_full::FloatDiv            0      0.00%     13.71% # attempts to use FU when none available
system.switch_cpus1.iq.fu_full::FloatSqrt            0      0.00%     13.71% # attempts to use FU when none available
system.switch_cpus1.iq.fu_full::SimdAdd             0      0.00%     13.71% # attempts to use FU when none available
system.switch_cpus1.iq.fu_full::SimdAddAcc            0      0.00%     13.71% # attempts to use FU when none available
system.switch_cpus1.iq.fu_full::SimdAlu             0      0.00%     13.71% # attempts to use FU when none available
system.switch_cpus1.iq.fu_full::SimdCmp             0      0.00%     13.71% # attempts to use FU when none available
system.switch_cpus1.iq.fu_full::SimdCvt             0      0.00%     13.71% # attempts to use FU when none available
system.switch_cpus1.iq.fu_full::SimdMisc            0      0.00%     13.71% # attempts to use FU when none available
system.switch_cpus1.iq.fu_full::SimdMult            0      0.00%     13.71% # attempts to use FU when none available
system.switch_cpus1.iq.fu_full::SimdMultAcc            0      0.00%     13.71% # attempts to use FU when none available
system.switch_cpus1.iq.fu_full::SimdShift            0      0.00%     13.71% # attempts to use FU when none available
system.switch_cpus1.iq.fu_full::SimdShiftAcc            0      0.00%     13.71% # attempts to use FU when none available
system.switch_cpus1.iq.fu_full::SimdSqrt            0      0.00%     13.71% # attempts to use FU when none available
system.switch_cpus1.iq.fu_full::SimdFloatAdd            0      0.00%     13.71% # attempts to use FU when none available
system.switch_cpus1.iq.fu_full::SimdFloatAlu            0      0.00%     13.71% # attempts to use FU when none available
system.switch_cpus1.iq.fu_full::SimdFloatCmp            0      0.00%     13.71% # attempts to use FU when none available
system.switch_cpus1.iq.fu_full::SimdFloatCvt            0      0.00%     13.71% # attempts to use FU when none available
system.switch_cpus1.iq.fu_full::SimdFloatDiv            0      0.00%     13.71% # attempts to use FU when none available
system.switch_cpus1.iq.fu_full::SimdFloatMisc            0      0.00%     13.71% # attempts to use FU when none available
system.switch_cpus1.iq.fu_full::SimdFloatMult            0      0.00%     13.71% # attempts to use FU when none available
system.switch_cpus1.iq.fu_full::SimdFloatMultAcc            0      0.00%     13.71% # attempts to use FU when none available
system.switch_cpus1.iq.fu_full::SimdFloatSqrt            0      0.00%     13.71% # attempts to use FU when none available
system.switch_cpus1.iq.fu_full::MemRead        161666     44.61%     58.32% # attempts to use FU when none available
system.switch_cpus1.iq.fu_full::MemWrite       151057     41.68%    100.00% # attempts to use FU when none available
system.switch_cpus1.iq.fu_full::IprAccess            0      0.00%    100.00% # attempts to use FU when none available
system.switch_cpus1.iq.fu_full::InstPrefetch            0      0.00%    100.00% # attempts to use FU when none available
system.switch_cpus1.iq.FU_type_0::No_OpClass            0      0.00%      0.00% # Type of FU issued
system.switch_cpus1.iq.FU_type_0::IntAlu    114216602     84.38%     84.38% # Type of FU issued
system.switch_cpus1.iq.FU_type_0::IntMult      1852012      1.37%     85.74% # Type of FU issued
system.switch_cpus1.iq.FU_type_0::IntDiv            0      0.00%     85.74% # Type of FU issued
system.switch_cpus1.iq.FU_type_0::FloatAdd            0      0.00%     85.74% # Type of FU issued
system.switch_cpus1.iq.FU_type_0::FloatCmp            0      0.00%     85.74% # Type of FU issued
system.switch_cpus1.iq.FU_type_0::FloatCvt            0      0.00%     85.74% # Type of FU issued
system.switch_cpus1.iq.FU_type_0::FloatMult            0      0.00%     85.74% # Type of FU issued
system.switch_cpus1.iq.FU_type_0::FloatDiv            0      0.00%     85.74% # Type of FU issued
system.switch_cpus1.iq.FU_type_0::FloatSqrt            0      0.00%     85.74% # Type of FU issued
system.switch_cpus1.iq.FU_type_0::SimdAdd            0      0.00%     85.74% # Type of FU issued
system.switch_cpus1.iq.FU_type_0::SimdAddAcc            0      0.00%     85.74% # Type of FU issued
system.switch_cpus1.iq.FU_type_0::SimdAlu            0      0.00%     85.74% # Type of FU issued
system.switch_cpus1.iq.FU_type_0::SimdCmp            0      0.00%     85.74% # Type of FU issued
system.switch_cpus1.iq.FU_type_0::SimdCvt            0      0.00%     85.74% # Type of FU issued
system.switch_cpus1.iq.FU_type_0::SimdMisc            0      0.00%     85.74% # Type of FU issued
system.switch_cpus1.iq.FU_type_0::SimdMult            0      0.00%     85.74% # Type of FU issued
system.switch_cpus1.iq.FU_type_0::SimdMultAcc            0      0.00%     85.74% # Type of FU issued
system.switch_cpus1.iq.FU_type_0::SimdShift            0      0.00%     85.74% # Type of FU issued
system.switch_cpus1.iq.FU_type_0::SimdShiftAcc            0      0.00%     85.74% # Type of FU issued
system.switch_cpus1.iq.FU_type_0::SimdSqrt            0      0.00%     85.74% # Type of FU issued
system.switch_cpus1.iq.FU_type_0::SimdFloatAdd            0      0.00%     85.74% # Type of FU issued
system.switch_cpus1.iq.FU_type_0::SimdFloatAlu            0      0.00%     85.74% # Type of FU issued
system.switch_cpus1.iq.FU_type_0::SimdFloatCmp            0      0.00%     85.74% # Type of FU issued
system.switch_cpus1.iq.FU_type_0::SimdFloatCvt            0      0.00%     85.74% # Type of FU issued
system.switch_cpus1.iq.FU_type_0::SimdFloatDiv            0      0.00%     85.74% # Type of FU issued
system.switch_cpus1.iq.FU_type_0::SimdFloatMisc        17015      0.01%     85.76% # Type of FU issued
system.switch_cpus1.iq.FU_type_0::SimdFloatMult            0      0.00%     85.76% # Type of FU issued
system.switch_cpus1.iq.FU_type_0::SimdFloatMultAcc            0      0.00%     85.76% # Type of FU issued
system.switch_cpus1.iq.FU_type_0::SimdFloatSqrt            0      0.00%     85.76% # Type of FU issued
system.switch_cpus1.iq.FU_type_0::MemRead     12137006      8.97%     94.72% # Type of FU issued
system.switch_cpus1.iq.FU_type_0::MemWrite      7144243      5.28%    100.00% # Type of FU issued
system.switch_cpus1.iq.FU_type_0::IprAccess            0      0.00%    100.00% # Type of FU issued
system.switch_cpus1.iq.FU_type_0::InstPrefetch            0      0.00%    100.00% # Type of FU issued
system.switch_cpus1.iq.FU_type_0::total     135366878                       # Type of FU issued
system.switch_cpus1.iq.rate                  0.568448                       # Inst issue rate
system.switch_cpus1.iq.fu_busy_cnt             362414                       # FU busy when requested
system.switch_cpus1.iq.fu_busy_rate          0.002677                       # FU busy rate (busy events/executed inst)
system.switch_cpus1.iq.int_inst_queue_reads    496388654                       # Number of integer instruction queue reads
system.switch_cpus1.iq.int_inst_queue_writes    158603276                       # Number of integer instruction queue writes
system.switch_cpus1.iq.int_inst_queue_wakeup_accesses    133057052                       # Number of integer instruction queue wakeup accesses
system.switch_cpus1.iq.fp_inst_queue_reads            0                       # Number of floating instruction queue reads
system.switch_cpus1.iq.fp_inst_queue_writes            0                       # Number of floating instruction queue writes
system.switch_cpus1.iq.fp_inst_queue_wakeup_accesses            0                       # Number of floating instruction queue wakeup accesses
system.switch_cpus1.iq.int_alu_accesses     135729292                       # Number of integer alu accesses
system.switch_cpus1.iq.fp_alu_accesses              0                       # Number of floating point alu accesses
system.switch_cpus1.iew.lsq.thread0.forwLoads       276106                       # Number of loads that had data forwarded from stores
system.switch_cpus1.iew.lsq.thread0.invAddrLoads            0                       # Number of loads ignored due to an invalid address
system.switch_cpus1.iew.lsq.thread0.squashedLoads      2135794                       # Number of loads squashed
system.switch_cpus1.iew.lsq.thread0.ignoredResponses            5                       # Number of memory responses ignored because the instruction is squashed
system.switch_cpus1.iew.lsq.thread0.memOrderViolation          232                       # Number of memory ordering violations
system.switch_cpus1.iew.lsq.thread0.squashedStores        85438                       # Number of stores squashed
system.switch_cpus1.iew.lsq.thread0.invAddrSwpfs            0                       # Number of software prefetches ignored due to an invalid address
system.switch_cpus1.iew.lsq.thread0.blockedLoads            0                       # Number of blocked loads due to partial load-store forwarding
system.switch_cpus1.iew.lsq.thread0.rescheduledLoads            0                       # Number of loads that were rescheduled
system.switch_cpus1.iew.lsq.thread0.cacheBlocked            0                       # Number of times an access to memory failed due to the cache being blocked
system.switch_cpus1.iew.iewIdleCycles               0                       # Number of cycles IEW is idle
system.switch_cpus1.iew.iewSquashCycles       3494002                       # Number of cycles IEW is squashing
system.switch_cpus1.iew.iewBlockCycles         459638                       # Number of cycles IEW is blocking
system.switch_cpus1.iew.iewUnblockCycles        53829                       # Number of cycles IEW is unblocking
system.switch_cpus1.iew.iewDispatchedInsts    141916834                       # Number of instructions dispatched to IQ
system.switch_cpus1.iew.iewDispSquashedInsts        15884                       # Number of squashed instructions skipped by dispatch
system.switch_cpus1.iew.iewDispLoadInsts     13264458                       # Number of dispatched load instructions
system.switch_cpus1.iew.iewDispStoreInsts      7162413                       # Number of dispatched store instructions
system.switch_cpus1.iew.iewDispNonSpecInsts        17062                       # Number of dispatched non-speculative instructions
system.switch_cpus1.iew.iewIQFullEvents         44719                       # Number of times the IQ has become full, causing a stall
system.switch_cpus1.iew.iewLSQFullEvents            0                       # Number of times the LSQ has become full, causing a stall
system.switch_cpus1.iew.memOrderViolationEvents          232                       # Number of memory order violations
system.switch_cpus1.iew.predictedTakenIncorrect      1145512                       # Number of branches that were predicted taken incorrectly
system.switch_cpus1.iew.predictedNotTakenIncorrect      1036228                       # Number of branches that were predicted not taken incorrectly
system.switch_cpus1.iew.branchMispredicts      2181740                       # Number of branch mispredicts detected at execute
system.switch_cpus1.iew.iewExecutedInsts    133823418                       # Number of executed instructions
system.switch_cpus1.iew.iewExecLoadInsts     12044652                       # Number of load instructions executed
system.switch_cpus1.iew.iewExecSquashedInsts      1543460                       # Number of squashed instructions skipped in execute
system.switch_cpus1.iew.exec_swp                    0                       # number of swp insts executed
system.switch_cpus1.iew.exec_nop                    0                       # number of nop insts executed
system.switch_cpus1.iew.exec_refs            19188888                       # number of memory reference insts executed
system.switch_cpus1.iew.exec_branches        18963533                       # Number of branches executed
system.switch_cpus1.iew.exec_stores           7144236                       # Number of stores executed
system.switch_cpus1.iew.exec_rate            0.561967                       # Inst execution rate
system.switch_cpus1.iew.wb_sent             133057107                       # cumulative count of insts sent to commit
system.switch_cpus1.iew.wb_count            133057052                       # cumulative count of insts written-back
system.switch_cpus1.iew.wb_producers         77862865                       # num instructions producing a value
system.switch_cpus1.iew.wb_consumers        212015175                       # num instructions consuming a value
system.switch_cpus1.iew.wb_penalized                0                       # number of instrctions required to write to 'other' IQ
system.switch_cpus1.iew.wb_rate              0.558748                       # insts written-back per cycle
system.switch_cpus1.iew.wb_fanout            0.367251                       # average fanout of values written-back
system.switch_cpus1.iew.wb_penalized_rate            0                       # fraction of instructions written-back that wrote to 'other' IQ
system.switch_cpus1.commit.commitCommittedInsts     99576775                       # The number of committed instructions
system.switch_cpus1.commit.commitCommittedOps    122742722                       # The number of committed instructions
system.switch_cpus1.commit.commitSquashedInsts     19174387                       # The number of squashed insts skipped by commit
system.switch_cpus1.commit.commitNonSpecStalls        34032                       # The number of times commit has been forced to stall to communicate backwards
system.switch_cpus1.commit.branchMispredicts      2003704                       # The number of times a branch was mispredicted
system.switch_cpus1.commit.committed_per_cycle::samples    221734947                       # Number of insts commited each cycle
system.switch_cpus1.commit.committed_per_cycle::mean     0.553556                       # Number of insts commited each cycle
system.switch_cpus1.commit.committed_per_cycle::stdev     1.405134                       # Number of insts commited each cycle
system.switch_cpus1.commit.committed_per_cycle::underflows            0      0.00%      0.00% # Number of insts commited each cycle
system.switch_cpus1.commit.committed_per_cycle::0    171627419     77.40%     77.40% # Number of insts commited each cycle
system.switch_cpus1.commit.committed_per_cycle::1     24437016     11.02%     88.42% # Number of insts commited each cycle
system.switch_cpus1.commit.committed_per_cycle::2      9378587      4.23%     92.65% # Number of insts commited each cycle
system.switch_cpus1.commit.committed_per_cycle::3      4938468      2.23%     94.88% # Number of insts commited each cycle
system.switch_cpus1.commit.committed_per_cycle::4      4192553      1.89%     96.77% # Number of insts commited each cycle
system.switch_cpus1.commit.committed_per_cycle::5      1992267      0.90%     97.67% # Number of insts commited each cycle
system.switch_cpus1.commit.committed_per_cycle::6       936984      0.42%     98.09% # Number of insts commited each cycle
system.switch_cpus1.commit.committed_per_cycle::7      1473547      0.66%     98.76% # Number of insts commited each cycle
system.switch_cpus1.commit.committed_per_cycle::8      2758106      1.24%    100.00% # Number of insts commited each cycle
system.switch_cpus1.commit.committed_per_cycle::overflows            0      0.00%    100.00% # Number of insts commited each cycle
system.switch_cpus1.commit.committed_per_cycle::min_value            0                       # Number of insts commited each cycle
system.switch_cpus1.commit.committed_per_cycle::max_value            8                       # Number of insts commited each cycle
system.switch_cpus1.commit.committed_per_cycle::total    221734947                       # Number of insts commited each cycle
system.switch_cpus1.commit.committedInsts     99576775                       # Number of instructions committed
system.switch_cpus1.commit.committedOps     122742722                       # Number of ops (including micro ops) committed
system.switch_cpus1.commit.swp_count                0                       # Number of s/w prefetches committed
system.switch_cpus1.commit.refs              18205636                       # Number of memory references committed
system.switch_cpus1.commit.loads             11128661                       # Number of loads committed
system.switch_cpus1.commit.membars              17016                       # Number of memory barriers committed
[...]
system.cpu2.icache.ReadReq_miss_latency::total      3586959                       # number of ReadReq miss cycles
system.cpu2.icache.demand_miss_latency::switch_cpus2.inst      3586959                       # number of demand (read+write) miss cycles
system.cpu2.icache.demand_miss_latency::total      3586959                       # number of demand (read+write) miss cycles
system.cpu2.icache.overall_miss_latency::switch_cpus2.inst      3586959                       # number of overall miss cycles
system.cpu2.icache.overall_miss_latency::total      3586959                       # number of overall miss cycles
system.cpu2.icache.ReadReq_accesses::switch_cpus2.inst     11416236                       # number of ReadReq accesses(hits+misses)
system.cpu2.icache.ReadReq_accesses::total     11416236                       # number of ReadReq accesses(hits+misses)
system.cpu2.icache.demand_accesses::switch_cpus2.inst     11416236                       # number of demand (read+write) accesses
system.cpu2.icache.demand_accesses::total     11416236                       # number of demand (read+write) accesses
system.cpu2.icache.overall_accesses::switch_cpus2.inst     11416236                       # number of overall (read+write) accesses
system.cpu2.icache.overall_accesses::total     11416236                       # number of overall (read+write) accesses
system.cpu2.icache.ReadReq_miss_rate::switch_cpus2.inst     0.000001                       # miss rate for ReadReq accesses
system.cpu2.icache.ReadReq_miss_rate::total     0.000001                       # miss rate for ReadReq accesses
system.cpu2.icache.demand_miss_rate::switch_cpus2.inst     0.000001                       # miss rate for demand accesses
system.cpu2.icache.demand_miss_rate::total     0.000001                       # miss rate for demand accesses
system.cpu2.icache.overall_miss_rate::switch_cpus2.inst     0.000001                       # miss rate for overall accesses
system.cpu2.icache.overall_miss_rate::total     0.000001                       # miss rate for overall accesses
system.cpu2.icache.ReadReq_avg_miss_latency::switch_cpus2.inst 239130.600000                       # average ReadReq miss latency
system.cpu2.icache.ReadReq_avg_miss_latency::total 239130.600000                       # average ReadReq miss latency
system.cpu2.icache.demand_avg_miss_latency::switch_cpus2.inst 239130.600000                       # average overall miss latency
system.cpu2.icache.demand_avg_miss_latency::total 239130.600000                       # average overall miss latency
system.cpu2.icache.overall_avg_miss_latency::switch_cpus2.inst 239130.600000                       # average overall miss latency
system.cpu2.icache.overall_avg_miss_latency::total 239130.600000                       # average overall miss latency
system.cpu2.icache.blocked_cycles::no_mshrs            0                       # number of cycles access was blocked
system.cpu2.icache.blocked_cycles::no_targets            0                       # number of cycles access was blocked
system.cpu2.icache.blocked::no_mshrs                0                       # number of cycles access was blocked
system.cpu2.icache.blocked::no_targets              0                       # number of cycles access was blocked
system.cpu2.icache.avg_blocked_cycles::no_mshrs          nan                       # average number of cycles each access was blocked
system.cpu2.icache.avg_blocked_cycles::no_targets          nan                       # average number of cycles each access was blocked
system.cpu2.icache.fast_writes                      0                       # number of fast writes performed
system.cpu2.icache.cache_copies                     0                       # number of cache copies performed
system.cpu2.icache.ReadReq_mshr_hits::switch_cpus2.inst            2                       # number of ReadReq MSHR hits
system.cpu2.icache.ReadReq_mshr_hits::total            2                       # number of ReadReq MSHR hits
system.cpu2.icache.demand_mshr_hits::switch_cpus2.inst            2                       # number of demand (read+write) MSHR hits
system.cpu2.icache.demand_mshr_hits::total            2                       # number of demand (read+write) MSHR hits
system.cpu2.icache.overall_mshr_hits::switch_cpus2.inst            2                       # number of overall MSHR hits
system.cpu2.icache.overall_mshr_hits::total            2                       # number of overall MSHR hits
system.cpu2.icache.ReadReq_mshr_misses::switch_cpus2.inst           13                       # number of ReadReq MSHR misses
system.cpu2.icache.ReadReq_mshr_misses::total           13                       # number of ReadReq MSHR misses
system.cpu2.icache.demand_mshr_misses::switch_cpus2.inst           13                       # number of demand (read+write) MSHR misses
system.cpu2.icache.demand_mshr_misses::total           13                       # number of demand (read+write) MSHR misses
system.cpu2.icache.overall_mshr_misses::switch_cpus2.inst           13                       # number of overall MSHR misses
system.cpu2.icache.overall_mshr_misses::total           13                       # number of overall MSHR misses
system.cpu2.icache.ReadReq_mshr_miss_latency::switch_cpus2.inst      3106724                       # number of ReadReq MSHR miss cycles
system.cpu2.icache.ReadReq_mshr_miss_latency::total      3106724                       # number of ReadReq MSHR miss cycles
system.cpu2.icache.demand_mshr_miss_latency::switch_cpus2.inst      3106724                       # number of demand (read+write) MSHR miss cycles
system.cpu2.icache.demand_mshr_miss_latency::total      3106724                       # number of demand (read+write) MSHR miss cycles
system.cpu2.icache.overall_mshr_miss_latency::switch_cpus2.inst      3106724                       # number of overall MSHR miss cycles
system.cpu2.icache.overall_mshr_miss_latency::total      3106724                       # number of overall MSHR miss cycles
system.cpu2.icache.ReadReq_mshr_miss_rate::switch_cpus2.inst     0.000001                       # mshr miss rate for ReadReq accesses
system.cpu2.icache.ReadReq_mshr_miss_rate::total     0.000001                       # mshr miss rate for ReadReq accesses
system.cpu2.icache.demand_mshr_miss_rate::switch_cpus2.inst     0.000001                       # mshr miss rate for demand accesses
system.cpu2.icache.demand_mshr_miss_rate::total     0.000001                       # mshr miss rate for demand accesses
system.cpu2.icache.overall_mshr_miss_rate::switch_cpus2.inst     0.000001                       # mshr miss rate for overall accesses
system.cpu2.icache.overall_mshr_miss_rate::total     0.000001                       # mshr miss rate for overall accesses
system.cpu2.icache.ReadReq_avg_mshr_miss_latency::switch_cpus2.inst 238978.769231                       # average ReadReq mshr miss latency
system.cpu2.icache.ReadReq_avg_mshr_miss_latency::total 238978.769231                       # average ReadReq mshr miss latency
system.cpu2.icache.demand_avg_mshr_miss_latency::switch_cpus2.inst 238978.769231                       # average overall mshr miss latency
system.cpu2.icache.demand_avg_mshr_miss_latency::total 238978.769231                       # average overall mshr miss latency
system.cpu2.icache.overall_avg_mshr_miss_latency::switch_cpus2.inst 238978.769231                       # average overall mshr miss latency
system.cpu2.icache.overall_avg_mshr_miss_latency::total 238978.769231                       # average overall mshr miss latency
system.cpu2.icache.no_allocate_misses               0                       # Number of misses that were no-allocate
system.cpu2.dcache.replacements                 72017                       # number of replacements
system.cpu2.dcache.tagsinuse                      256                       # Cycle average of tags in use
system.cpu2.dcache.total_refs               179529978                       # Total number of references to valid blocks.
system.cpu2.dcache.sampled_refs                 72273                       # Sample count of references to valid blocks.
system.cpu2.dcache.avg_refs               2484.053215                       # Average number of references to valid blocks.
system.cpu2.dcache.warmup_cycle                     0                       # Cycle when the warmup percentage was hit.
system.cpu2.dcache.occ_blocks::switch_cpus2.data   230.939352                       # Average occupied blocks per requestor
system.cpu2.dcache.occ_blocks::cpu2.data    25.060648                       # Average occupied blocks per requestor
system.cpu2.dcache.occ_percent::switch_cpus2.data     0.902107                       # Average percentage of cache occupancy
system.cpu2.dcache.occ_percent::cpu2.data     0.097893                       # Average percentage of cache occupancy
system.cpu2.dcache.occ_percent::total               1                       # Average percentage of cache occupancy
system.cpu2.dcache.ReadReq_hits::switch_cpus2.data      9260441                       # number of ReadReq hits
system.cpu2.dcache.ReadReq_hits::total        9260441                       # number of ReadReq hits
system.cpu2.dcache.WriteReq_hits::switch_cpus2.data      6875711                       # number of WriteReq hits
system.cpu2.dcache.WriteReq_hits::total       6875711                       # number of WriteReq hits
system.cpu2.dcache.LoadLockedReq_hits::switch_cpus2.data        20234                       # number of LoadLockedReq hits
system.cpu2.dcache.LoadLockedReq_hits::total        20234                       # number of LoadLockedReq hits
system.cpu2.dcache.StoreCondReq_hits::switch_cpus2.data        16258                       # number of StoreCondReq hits
system.cpu2.dcache.StoreCondReq_hits::total        16258                       # number of StoreCondReq hits
system.cpu2.dcache.demand_hits::switch_cpus2.data     16136152                       # number of demand (read+write) hits
system.cpu2.dcache.demand_hits::total        16136152                       # number of demand (read+write) hits
system.cpu2.dcache.overall_hits::switch_cpus2.data     16136152                       # number of overall hits
system.cpu2.dcache.overall_hits::total       16136152                       # number of overall hits
system.cpu2.dcache.ReadReq_misses::switch_cpus2.data       175444                       # number of ReadReq misses
system.cpu2.dcache.ReadReq_misses::total       175444                       # number of ReadReq misses
system.cpu2.dcache.demand_misses::switch_cpus2.data       175444                       # number of demand (read+write) misses
system.cpu2.dcache.demand_misses::total        175444                       # number of demand (read+write) misses
system.cpu2.dcache.overall_misses::switch_cpus2.data       175444                       # number of overall misses
system.cpu2.dcache.overall_misses::total       175444                       # number of overall misses
system.cpu2.dcache.ReadReq_miss_latency::switch_cpus2.data  21273871736                       # number of ReadReq miss cycles
system.cpu2.dcache.ReadReq_miss_latency::total  21273871736                       # number of ReadReq miss cycles
system.cpu2.dcache.demand_miss_latency::switch_cpus2.data  21273871736                       # number of demand (read+write) miss cycles
system.cpu2.dcache.demand_miss_latency::total  21273871736                       # number of demand (read+write) miss cycles
system.cpu2.dcache.overall_miss_latency::switch_cpus2.data  21273871736                       # number of overall miss cycles
system.cpu2.dcache.overall_miss_latency::total  21273871736                       # number of overall miss cycles
system.cpu2.dcache.ReadReq_accesses::switch_cpus2.data      9435885                       # number of ReadReq accesses(hits+misses)
system.cpu2.dcache.ReadReq_accesses::total      9435885                       # number of ReadReq accesses(hits+misses)
system.cpu2.dcache.WriteReq_accesses::switch_cpus2.data      6875711                       # number of WriteReq accesses(hits+misses)
system.cpu2.dcache.WriteReq_accesses::total      6875711                       # number of WriteReq accesses(hits+misses)
system.cpu2.dcache.LoadLockedReq_accesses::switch_cpus2.data        20234                       # number of LoadLockedReq accesses(hits+misses)
system.cpu2.dcache.LoadLockedReq_accesses::total        20234                       # number of LoadLockedReq accesses(hits+misses)
system.cpu2.dcache.StoreCondReq_accesses::switch_cpus2.data        16258                       # number of StoreCondReq accesses(hits+misses)
system.cpu2.dcache.StoreCondReq_accesses::total        16258                       # number of StoreCondReq accesses(hits+misses)
system.cpu2.dcache.demand_accesses::switch_cpus2.data     16311596                       # number of demand (read+write) accesses
system.cpu2.dcache.demand_accesses::total     16311596                       # number of demand (read+write) accesses
system.cpu2.dcache.overall_accesses::switch_cpus2.data     16311596                       # number of overall (read+write) accesses
system.cpu2.dcache.overall_accesses::total     16311596                       # number of overall (read+write) accesses
system.cpu2.dcache.ReadReq_miss_rate::switch_cpus2.data     0.018593                       # miss rate for ReadReq accesses
system.cpu2.dcache.ReadReq_miss_rate::total     0.018593                       # miss rate for ReadReq accesses
system.cpu2.dcache.demand_miss_rate::switch_cpus2.data     0.010756                       # miss rate for demand accesses
system.cpu2.dcache.demand_miss_rate::total     0.010756                       # miss rate for demand accesses
system.cpu2.dcache.overall_miss_rate::switch_cpus2.data     0.010756                       # miss rate for overall accesses
system.cpu2.dcache.overall_miss_rate::total     0.010756                       # miss rate for overall accesses
system.cpu2.dcache.ReadReq_avg_miss_latency::switch_cpus2.data 121257.334169                       # average ReadReq miss latency
system.cpu2.dcache.ReadReq_avg_miss_latency::total 121257.334169                       # average ReadReq miss latency
system.cpu2.dcache.demand_avg_miss_latency::switch_cpus2.data 121257.334169                       # average overall miss latency
system.cpu2.dcache.demand_avg_miss_latency::total 121257.334169                       # average overall miss latency
system.cpu2.dcache.overall_avg_miss_latency::switch_cpus2.data 121257.334169                       # average overall miss latency
system.cpu2.dcache.overall_avg_miss_latency::total 121257.334169                       # average overall miss latency
system.cpu2.dcache.blocked_cycles::no_mshrs            0                       # number of cycles access was blocked
system.cpu2.dcache.blocked_cycles::no_targets            0                       # number of cycles access was blocked
system.cpu2.dcache.blocked::no_mshrs                0                       # number of cycles access was blocked
system.cpu2.dcache.blocked::no_targets              0                       # number of cycles access was blocked
system.cpu2.dcache.avg_blocked_cycles::no_mshrs          nan                       # average number of cycles each access was blocked
system.cpu2.dcache.avg_blocked_cycles::no_targets          nan                       # average number of cycles each access was blocked
system.cpu2.dcache.fast_writes                      0                       # number of fast writes performed
system.cpu2.dcache.cache_copies                     0                       # number of cache copies performed
system.cpu2.dcache.writebacks::writebacks        20390                       # number of writebacks
system.cpu2.dcache.writebacks::total            20390                       # number of writebacks
system.cpu2.dcache.ReadReq_mshr_hits::switch_cpus2.data       103427                       # number of ReadReq MSHR hits
system.cpu2.dcache.ReadReq_mshr_hits::total       103427                       # number of ReadReq MSHR hits
system.cpu2.dcache.demand_mshr_hits::switch_cpus2.data       103427                       # number of demand (read+write) MSHR hits
system.cpu2.dcache.demand_mshr_hits::total       103427                       # number of demand (read+write) MSHR hits
system.cpu2.dcache.overall_mshr_hits::switch_cpus2.data       103427                       # number of overall MSHR hits
system.cpu2.dcache.overall_mshr_hits::total       103427                       # number of overall MSHR hits
system.cpu2.dcache.ReadReq_mshr_misses::switch_cpus2.data        72017                       # number of ReadReq MSHR misses
system.cpu2.dcache.ReadReq_mshr_misses::total        72017                       # number of ReadReq MSHR misses
system.cpu2.dcache.demand_mshr_misses::switch_cpus2.data        72017                       # number of demand (read+write) MSHR misses
system.cpu2.dcache.demand_mshr_misses::total        72017                       # number of demand (read+write) MSHR misses
system.cpu2.dcache.overall_mshr_misses::switch_cpus2.data        72017                       # number of overall MSHR misses
system.cpu2.dcache.overall_mshr_misses::total        72017                       # number of overall MSHR misses
system.cpu2.dcache.ReadReq_mshr_miss_latency::switch_cpus2.data   7777812230                       # number of ReadReq MSHR miss cycles
system.cpu2.dcache.ReadReq_mshr_miss_latency::total   7777812230                       # number of ReadReq MSHR miss cycles
system.cpu2.dcache.demand_mshr_miss_latency::switch_cpus2.data   7777812230                       # number of demand (read+write) MSHR miss cycles
system.cpu2.dcache.demand_mshr_miss_latency::total   7777812230                       # number of demand (read+write) MSHR miss cycles
system.cpu2.dcache.overall_mshr_miss_latency::switch_cpus2.data   7777812230                       # number of overall MSHR miss cycles
system.cpu2.dcache.overall_mshr_miss_latency::total   7777812230                       # number of overall MSHR miss cycles
system.cpu2.dcache.ReadReq_mshr_miss_rate::switch_cpus2.data     0.007632                       # mshr miss rate for ReadReq accesses
system.cpu2.dcache.ReadReq_mshr_miss_rate::total     0.007632                       # mshr miss rate for ReadReq accesses
system.cpu2.dcache.demand_mshr_miss_rate::switch_cpus2.data     0.004415                       # mshr miss rate for demand accesses
system.cpu2.dcache.demand_mshr_miss_rate::total     0.004415                       # mshr miss rate for demand accesses
system.cpu2.dcache.overall_mshr_miss_rate::switch_cpus2.data     0.004415                       # mshr miss rate for overall accesses
system.cpu2.dcache.overall_mshr_miss_rate::total     0.004415                       # mshr miss rate for overall accesses
system.cpu2.dcache.ReadReq_avg_mshr_miss_latency::switch_cpus2.data 107999.669939                       # average ReadReq mshr miss latency
system.cpu2.dcache.ReadReq_avg_mshr_miss_latency::total 107999.669939                       # average ReadReq mshr miss latency
system.cpu2.dcache.demand_avg_mshr_miss_latency::switch_cpus2.data 107999.669939                       # average overall mshr miss latency
system.cpu2.dcache.demand_avg_mshr_miss_latency::total 107999.669939                       # average overall mshr miss latency
system.cpu2.dcache.overall_avg_mshr_miss_latency::switch_cpus2.data 107999.669939                       # average overall mshr miss latency
system.cpu2.dcache.overall_avg_mshr_miss_latency::total 107999.669939                       # average overall mshr miss latency
system.cpu2.dcache.no_allocate_misses               0                       # Number of misses that were no-allocate

---------- End Simulation Statistics   ----------
