
---------- Begin Simulation Statistics ----------
final_tick                               1297384004208                       # Number of ticks from beginning of simulation (restored from checkpoints and never reset)
host_inst_rate                                 225899                       # Simulator instruction rate (inst/s)
host_mem_usage                              135177604                       # Number of bytes of host memory used
host_op_rate                                   265714                       # Simulator op (including micro ops) rate (op/s)
host_seconds                                 73673.73                       # Real time elapsed on the host
host_tick_rate                                4607173                       # Simulator tick rate (ticks/s)
sim_freq                                 1000000000000                       # Frequency of simulated ticks
sim_insts                                 16642822546                       # Number of instructions simulated
sim_ops                                   19576145687                       # Number of ops (including micro ops) simulated
sim_seconds                                  0.339428                       # Number of seconds simulated
sim_ticks                                339427593202                       # Number of ticks simulated
system.cpu00.committedInsts                         0                       # Number of instructions committed
system.cpu00.committedOps                           0                       # Number of ops (including micro ops) committed
system.cpu00.dtb.accesses                           0                       # DTB accesses
system.cpu00.dtb.align_faults                       0                       # Number of TLB faults due to alignment restrictions
system.cpu00.dtb.domain_faults                      0                       # Number of TLB faults due to domain restrictions
system.cpu00.dtb.flush_entries                      0                       # Number of entries that have been flushed from TLB
system.cpu00.dtb.flush_tlb                          0                       # Number of times complete TLB was flushed
system.cpu00.dtb.flush_tlb_asid                     0                       # Number of times TLB was flushed by ASID
system.cpu00.dtb.flush_tlb_mva                      0                       # Number of times TLB was flushed by MVA
system.cpu00.dtb.flush_tlb_mva_asid                 0                       # Number of times TLB was flushed by MVA & ASID
system.cpu00.dtb.hits                               0                       # DTB hits
system.cpu00.dtb.inst_accesses                      0                       # ITB inst accesses
system.cpu00.dtb.inst_hits                          0                       # ITB inst hits
system.cpu00.dtb.inst_misses                        0                       # ITB inst misses
system.cpu00.dtb.misses                             0                       # DTB misses
system.cpu00.dtb.perms_faults                       0                       # Number of TLB faults due to permissions restrictions
system.cpu00.dtb.prefetch_faults                    0                       # Number of TLB faults due to prefetch
system.cpu00.dtb.read_accesses                      0                       # DTB read accesses
system.cpu00.dtb.read_hits                          0                       # DTB read hits
system.cpu00.dtb.read_misses                        0                       # DTB read misses
system.cpu00.dtb.stage2_mmu.stage2_tlb.accesses            0                       # DTB accesses
system.cpu00.dtb.stage2_mmu.stage2_tlb.align_faults            0                       # Number of TLB faults due to alignment restrictions
system.cpu00.dtb.stage2_mmu.stage2_tlb.domain_faults            0                       # Number of TLB faults due to domain restrictions
system.cpu00.dtb.stage2_mmu.stage2_tlb.flush_entries            0                       # Number of entries that have been flushed from TLB
system.cpu00.dtb.stage2_mmu.stage2_tlb.flush_tlb            0                       # Number of times complete TLB was flushed
system.cpu00.dtb.stage2_mmu.stage2_tlb.flush_tlb_asid            0                       # Number of times TLB was flushed by ASID
system.cpu00.dtb.stage2_mmu.stage2_tlb.flush_tlb_mva            0                       # Number of times TLB was flushed by MVA
system.cpu00.dtb.stage2_mmu.stage2_tlb.flush_tlb_mva_asid            0                       # Number of times TLB was flushed by MVA & ASID
system.cpu00.dtb.stage2_mmu.stage2_tlb.hits            0                       # DTB hits
system.cpu00.dtb.stage2_mmu.stage2_tlb.inst_accesses            0                       # ITB inst accesses
system.cpu00.dtb.stage2_mmu.stage2_tlb.inst_hits            0                       # ITB inst hits
system.cpu00.dtb.stage2_mmu.stage2_tlb.inst_misses            0                       # ITB inst misses
system.cpu00.dtb.stage2_mmu.stage2_tlb.misses            0                       # DTB misses
system.cpu00.dtb.stage2_mmu.stage2_tlb.perms_faults            0                       # Number of TLB faults due to permissions restrictions
system.cpu00.dtb.stage2_mmu.stage2_tlb.prefetch_faults            0                       # Number of TLB faults due to prefetch
system.cpu00.dtb.stage2_mmu.stage2_tlb.read_accesses            0                       # DTB read accesses
system.cpu00.dtb.stage2_mmu.stage2_tlb.read_hits            0                       # DTB read hits
system.cpu00.dtb.stage2_mmu.stage2_tlb.read_misses            0                       # DTB read misses
system.cpu00.dtb.stage2_mmu.stage2_tlb.walker.walkRequestOrigin_Requested::Data            0                       # Table walker requests started/completed, data/inst
system.cpu00.dtb.stage2_mmu.stage2_tlb.walker.walkRequestOrigin_Requested::Inst            0                       # Table walker requests started/completed, data/inst
system.cpu00.dtb.stage2_mmu.stage2_tlb.walker.walkRequestOrigin_Requested::total            0                       # Table walker requests started/completed, data/inst
system.cpu00.dtb.stage2_mmu.stage2_tlb.walker.walkRequestOrigin_Completed::Data            0                       # Table walker requests started/completed, data/inst
system.cpu00.dtb.stage2_mmu.stage2_tlb.walker.walkRequestOrigin_Completed::Inst            0                       # Table walker requests started/completed, data/inst
system.cpu00.dtb.stage2_mmu.stage2_tlb.walker.walkRequestOrigin_Completed::total            0                       # Table walker requests started/completed, data/inst
system.cpu00.dtb.stage2_mmu.stage2_tlb.walker.walkRequestOrigin::total            0                       # Table walker requests started/completed, data/inst
system.cpu00.dtb.stage2_mmu.stage2_tlb.walker.walks            0                       # Table walker walks requested
system.cpu00.dtb.stage2_mmu.stage2_tlb.write_accesses            0                       # DTB write accesses
system.cpu00.dtb.stage2_mmu.stage2_tlb.write_hits            0                       # DTB write hits
system.cpu00.dtb.stage2_mmu.stage2_tlb.write_misses            0                       # DTB write misses
system.cpu00.dtb.walker.walkRequestOrigin_Requested::Data            0                       # Table walker requests started/completed, data/inst
system.cpu00.dtb.walker.walkRequestOrigin_Requested::Inst            0                       # Table walker requests started/completed, data/inst
system.cpu00.dtb.walker.walkRequestOrigin_Requested::total            0                       # Table walker requests started/completed, data/inst
system.cpu00.dtb.walker.walkRequestOrigin_Completed::Data            0                       # Table walker requests started/completed, data/inst
system.cpu00.dtb.walker.walkRequestOrigin_Completed::Inst            0                       # Table walker requests started/completed, data/inst
system.cpu00.dtb.walker.walkRequestOrigin_Completed::total            0                       # Table walker requests started/completed, data/inst
system.cpu00.dtb.walker.walkRequestOrigin::total            0                       # Table walker requests started/completed, data/inst
system.cpu00.dtb.walker.walks                       0                       # Table walker walks requested
system.cpu00.dtb.write_accesses                     0                       # DTB write accesses
system.cpu00.dtb.write_hits                         0                       # DTB write hits
system.cpu00.dtb.write_misses                       0                       # DTB write misses
system.cpu00.idle_fraction                          0                       # Percentage of idle cycles
system.cpu00.itb.accesses                           0                       # DTB accesses
system.cpu00.itb.align_faults                       0                       # Number of TLB faults due to alignment restrictions
system.cpu00.itb.domain_faults                      0                       # Number of TLB faults due to domain restrictions
system.cpu00.itb.flush_entries                      0                       # Number of entries that have been flushed from TLB
system.cpu00.itb.flush_tlb                          0                       # Number of times complete TLB was flushed
system.cpu00.itb.flush_tlb_asid                     0                       # Number of times TLB was flushed by ASID
system.cpu00.itb.flush_tlb_mva                      0                       # Number of times TLB was flushed by MVA
system.cpu00.itb.flush_tlb_mva_asid                 0                       # Number of times TLB was flushed by MVA & ASID
system.cpu00.itb.hits                               0                       # DTB hits
system.cpu00.itb.inst_accesses                      0                       # ITB inst accesses
system.cpu00.itb.inst_hits                          0                       # ITB inst hits
system.cpu00.itb.inst_misses                        0                       # ITB inst misses
system.cpu00.itb.misses                             0                       # DTB misses
system.cpu00.itb.perms_faults                       0                       # Number of TLB faults due to permissions restrictions
system.cpu00.itb.prefetch_faults                    0                       # Number of TLB faults due to prefetch
system.cpu00.itb.read_accesses                      0                       # DTB read accesses
system.cpu00.itb.read_hits                          0                       # DTB read hits
system.cpu00.itb.read_misses                        0                       # DTB read misses
system.cpu00.itb.stage2_mmu.stage2_tlb.accesses            0                       # DTB accesses
system.cpu00.itb.stage2_mmu.stage2_tlb.align_faults            0                       # Number of TLB faults due to alignment restrictions
system.cpu00.itb.stage2_mmu.stage2_tlb.domain_faults            0                       # Number of TLB faults due to domain restrictions
system.cpu00.itb.stage2_mmu.stage2_tlb.flush_entries            0                       # Number of entries that have been flushed from TLB
system.cpu00.itb.stage2_mmu.stage2_tlb.flush_tlb            0                       # Number of times complete TLB was flushed
system.cpu00.itb.stage2_mmu.stage2_tlb.flush_tlb_asid            0                       # Number of times TLB was flushed by ASID
system.cpu00.itb.stage2_mmu.stage2_tlb.flush_tlb_mva            0                       # Number of times TLB was flushed by MVA
system.cpu00.itb.stage2_mmu.stage2_tlb.flush_tlb_mva_asid            0                       # Number of times TLB was flushed by MVA & ASID
system.cpu00.itb.stage2_mmu.stage2_tlb.hits            0                       # DTB hits
system.cpu00.itb.stage2_mmu.stage2_tlb.inst_accesses            0                       # ITB inst accesses
system.cpu00.itb.stage2_mmu.stage2_tlb.inst_hits            0                       # ITB inst hits
system.cpu00.itb.stage2_mmu.stage2_tlb.inst_misses            0                       # ITB inst misses
system.cpu00.itb.stage2_mmu.stage2_tlb.misses            0                       # DTB misses
system.cpu00.itb.stage2_mmu.stage2_tlb.perms_faults            0                       # Number of TLB faults due to permissions restrictions
system.cpu00.itb.stage2_mmu.stage2_tlb.prefetch_faults            0                       # Number of TLB faults due to prefetch
system.cpu00.itb.stage2_mmu.stage2_tlb.read_accesses            0                       # DTB read accesses
system.cpu00.itb.stage2_mmu.stage2_tlb.read_hits            0                       # DTB read hits
system.cpu00.itb.stage2_mmu.stage2_tlb.read_misses            0                       # DTB read misses
system.cpu00.itb.stage2_mmu.stage2_tlb.walker.walkRequestOrigin_Requested::Data            0                       # Table walker requests started/completed, data/inst
system.cpu00.itb.stage2_mmu.stage2_tlb.walker.walkRequestOrigin_Requested::Inst            0                       # Table walker requests started/completed, data/inst
system.cpu00.itb.stage2_mmu.stage2_tlb.walker.walkRequestOrigin_Requested::total            0                       # Table walker requests started/completed, data/inst
system.cpu00.itb.stage2_mmu.stage2_tlb.walker.walkRequestOrigin_Completed::Data            0                       # Table walker requests started/completed, data/inst
system.cpu00.itb.stage2_mmu.stage2_tlb.walker.walkRequestOrigin_Completed::Inst            0                       # Table walker requests started/completed, data/inst
system.cpu00.itb.stage2_mmu.stage2_tlb.walker.walkRequestOrigin_Completed::total            0                       # Table walker requests started/completed, data/inst
system.cpu00.itb.stage2_mmu.stage2_tlb.walker.walkRequestOrigin::total            0                       # Table walker requests started/completed, data/inst
system.cpu00.itb.stage2_mmu.stage2_tlb.walker.walks            0                       # Table walker walks requested
system.cpu00.itb.stage2_mmu.stage2_tlb.write_accesses            0                       # DTB write accesses
system.cpu00.itb.stage2_mmu.stage2_tlb.write_hits            0                       # DTB write hits
system.cpu00.itb.stage2_mmu.stage2_tlb.write_misses            0                       # DTB write misses
system.cpu00.itb.walker.walkRequestOrigin_Requested::Data            0                       # Table walker requests started/completed, data/inst
system.cpu00.itb.walker.walkRequestOrigin_Requested::Inst            0                       # Table walker requests started/completed, data/inst
system.cpu00.itb.walker.walkRequestOrigin_Requested::total            0                       # Table walker requests started/completed, data/inst
system.cpu00.itb.walker.walkRequestOrigin_Completed::Data            0                       # Table walker requests started/completed, data/inst
system.cpu00.itb.walker.walkRequestOrigin_Completed::Inst            0                       # Table walker requests started/completed, data/inst
system.cpu00.itb.walker.walkRequestOrigin_Completed::total            0                       # Table walker requests started/completed, data/inst
system.cpu00.itb.walker.walkRequestOrigin::total            0                       # Table walker requests started/completed, data/inst
system.cpu00.itb.walker.walks                       0                       # Table walker walks requested
system.cpu00.itb.write_accesses                     0                       # DTB write accesses
system.cpu00.itb.write_hits                         0                       # DTB write hits
system.cpu00.itb.write_misses                       0                       # DTB write misses
system.cpu00.not_idle_fraction                      1                       # Percentage of non-idle cycles
system.cpu00.numCycles                              0                       # number of cpu cycles simulated
system.cpu00.numWorkItemsCompleted                  0                       # number of work items this cpu completed
system.cpu00.numWorkItemsStarted                    0                       # number of work items this cpu started
system.cpu00.num_busy_cycles                        0                       # Number of busy cycles
system.cpu00.num_conditional_control_insts            0                       # number of instructions that are conditional controls
system.cpu00.num_fp_alu_accesses                    0                       # Number of float alu accesses
system.cpu00.num_fp_insts                           0                       # number of float instructions
system.cpu00.num_fp_register_reads                  0                       # number of times the floating registers were read
system.cpu00.num_fp_register_writes                 0                       # number of times the floating registers were written
system.cpu00.num_func_calls                         0                       # number of times a function call or return occured
system.cpu00.num_idle_cycles                        0                       # Number of idle cycles
system.cpu00.num_int_alu_accesses                   0                       # Number of integer alu accesses
system.cpu00.num_int_insts                          0                       # number of integer instructions
system.cpu00.num_int_register_reads                 0                       # number of times the integer registers were read
system.cpu00.num_int_register_writes                0                       # number of times the integer registers were written
system.cpu00.num_load_insts                         0                       # Number of load instructions
system.cpu00.num_mem_refs                           0                       # number of memory refs
system.cpu00.num_store_insts                        0                       # Number of store instructions
system.cpu00.num_vec_alu_accesses                   0                       # Number of vector alu accesses
system.cpu00.num_vec_insts                          0                       # number of vector instructions
system.cpu00.num_vec_register_reads                 0                       # number of times the vector registers were read
system.cpu00.num_vec_register_writes                0                       # number of times the vector registers were written
system.cpu00.op_class::No_OpClass                   0                       # Class of executed instruction
system.cpu00.op_class::IntAlu                       0                       # Class of executed instruction
system.cpu00.op_class::IntMult                      0                       # Class of executed instruction
system.cpu00.op_class::IntDiv                       0                       # Class of executed instruction
system.cpu00.op_class::FloatAdd                     0                       # Class of executed instruction
system.cpu00.op_class::FloatCmp                     0                       # Class of executed instruction
system.cpu00.op_class::FloatCvt                     0                       # Class of executed instruction
system.cpu00.op_class::FloatMult                    0                       # Class of executed instruction
system.cpu00.op_class::FloatMultAcc                 0                       # Class of executed instruction
system.cpu00.op_class::FloatDiv                     0                       # Class of executed instruction
system.cpu00.op_class::FloatMisc                    0                       # Class of executed instruction
system.cpu00.op_class::FloatSqrt                    0                       # Class of executed instruction
system.cpu00.op_class::SimdAdd                      0                       # Class of executed instruction
system.cpu00.op_class::SimdAddAcc                   0                       # Class of executed instruction
system.cpu00.op_class::SimdAlu                      0                       # Class of executed instruction
system.cpu00.op_class::SimdCmp                      0                       # Class of executed instruction
system.cpu00.op_class::SimdCvt                      0                       # Class of executed instruction
system.cpu00.op_class::SimdMisc                     0                       # Class of executed instruction
system.cpu00.op_class::SimdMult                     0                       # Class of executed instruction
system.cpu00.op_class::SimdMultAcc                  0                       # Class of executed instruction
system.cpu00.op_class::SimdShift                    0                       # Class of executed instruction
system.cpu00.op_class::SimdShiftAcc                 0                       # Class of executed instruction
system.cpu00.op_class::SimdDiv                      0                       # Class of executed instruction
system.cpu00.op_class::SimdSqrt                     0                       # Class of executed instruction
system.cpu00.op_class::SimdFloatAdd                 0                       # Class of executed instruction
system.cpu00.op_class::SimdFloatAlu                 0                       # Class of executed instruction
system.cpu00.op_class::SimdFloatCmp                 0                       # Class of executed instruction
system.cpu00.op_class::SimdFloatCvt                 0                       # Class of executed instruction
system.cpu00.op_class::SimdFloatDiv                 0                       # Class of executed instruction
system.cpu00.op_class::SimdFloatMisc                0                       # Class of executed instruction
system.cpu00.op_class::SimdFloatMult                0                       # Class of executed instruction
system.cpu00.op_class::SimdFloatMultAcc             0                       # Class of executed instruction
system.cpu00.op_class::SimdFloatSqrt                0                       # Class of executed instruction
system.cpu00.op_class::SimdReduceAdd                0                       # Class of executed instruction
system.cpu00.op_class::SimdReduceAlu                0                       # Class of executed instruction
system.cpu00.op_class::SimdReduceCmp                0                       # Class of executed instruction
system.cpu00.op_class::SimdFloatReduceAdd            0                       # Class of executed instruction
system.cpu00.op_class::SimdFloatReduceCmp            0                       # Class of executed instruction
system.cpu00.op_class::SimdAes                      0                       # Class of executed instruction
system.cpu00.op_class::SimdAesMix                   0                       # Class of executed instruction
system.cpu00.op_class::SimdSha1Hash                 0                       # Class of executed instruction
system.cpu00.op_class::SimdSha1Hash2                0                       # Class of executed instruction
system.cpu00.op_class::SimdSha256Hash               0                       # Class of executed instruction
system.cpu00.op_class::SimdSha256Hash2              0                       # Class of executed instruction
system.cpu00.op_class::SimdShaSigma2                0                       # Class of executed instruction
system.cpu00.op_class::SimdShaSigma3                0                       # Class of executed instruction
system.cpu00.op_class::SimdPredAlu                  0                       # Class of executed instruction
system.cpu00.op_class::MemRead                      0                       # Class of executed instruction
system.cpu00.op_class::MemWrite                     0                       # Class of executed instruction
system.cpu00.op_class::FloatMemRead                 0                       # Class of executed instruction
system.cpu00.op_class::FloatMemWrite                0                       # Class of executed instruction
system.cpu00.op_class::IprAccess                    0                       # Class of executed instruction
system.cpu00.op_class::InstPrefetch                 0                       # Class of executed instruction
system.cpu00.op_class::total                        0                       # Class of executed instruction
system.cpu00.workload.numSyscalls               21792                       # Number of system calls
system.cpu01.committedInsts                         0                       # Number of instructions committed
system.cpu01.committedOps                           0                       # Number of ops (including micro ops) committed
system.cpu01.dtb.accesses                           0                       # DTB accesses
system.cpu01.dtb.align_faults                       0                       # Number of TLB faults due to alignment restrictions
system.cpu01.dtb.domain_faults                      0                       # Number of TLB faults due to domain restrictions
system.cpu01.dtb.flush_entries                      0                       # Number of entries that have been flushed from TLB
system.cpu01.dtb.flush_tlb                          0                       # Number of times complete TLB was flushed
system.cpu01.dtb.flush_tlb_asid                     0                       # Number of times TLB was flushed by ASID
system.cpu01.dtb.flush_tlb_mva                      0                       # Number of times TLB was flushed by MVA
system.cpu01.dtb.flush_tlb_mva_asid                 0                       # Number of times TLB was flushed by MVA & ASID
system.cpu01.dtb.hits                               0                       # DTB hits
system.cpu01.dtb.inst_accesses                      0                       # ITB inst accesses
system.cpu01.dtb.inst_hits                          0                       # ITB inst hits
system.cpu01.dtb.inst_misses                        0                       # ITB inst misses
system.cpu01.dtb.misses                             0                       # DTB misses
system.cpu01.dtb.perms_faults                       0                       # Number of TLB faults due to permissions restrictions
system.cpu01.dtb.prefetch_faults                    0                       # Number of TLB faults due to prefetch
system.cpu01.dtb.read_accesses                      0                       # DTB read accesses
system.cpu01.dtb.read_hits                          0                       # DTB read hits
system.cpu01.dtb.read_misses                        0                       # DTB read misses
system.cpu01.dtb.stage2_mmu.stage2_tlb.accesses            0                       # DTB accesses
system.cpu01.dtb.stage2_mmu.stage2_tlb.align_faults            0                       # Number of TLB faults due to alignment restrictions
system.cpu01.dtb.stage2_mmu.stage2_tlb.domain_faults            0                       # Number of TLB faults due to domain restrictions
system.cpu01.dtb.stage2_mmu.stage2_tlb.flush_entries            0                       # Number of entries that have been flushed from TLB
system.cpu01.dtb.stage2_mmu.stage2_tlb.flush_tlb            0                       # Number of times complete TLB was flushed
system.cpu01.dtb.stage2_mmu.stage2_tlb.flush_tlb_asid            0                       # Number of times TLB was flushed by ASID
system.cpu01.dtb.stage2_mmu.stage2_tlb.flush_tlb_mva            0                       # Number of times TLB was flushed by MVA
system.cpu01.dtb.stage2_mmu.stage2_tlb.flush_tlb_mva_asid            0                       # Number of times TLB was flushed by MVA & ASID
system.cpu01.dtb.stage2_mmu.stage2_tlb.hits            0                       # DTB hits
system.cpu01.dtb.stage2_mmu.stage2_tlb.inst_accesses            0                       # ITB inst accesses
system.cpu01.dtb.stage2_mmu.stage2_tlb.inst_hits            0                       # ITB inst hits
system.cpu01.dtb.stage2_mmu.stage2_tlb.inst_misses            0                       # ITB inst misses
system.cpu01.dtb.stage2_mmu.stage2_tlb.misses            0                       # DTB misses
system.cpu01.dtb.stage2_mmu.stage2_tlb.perms_faults            0                       # Number of TLB faults due to permissions restrictions
system.cpu01.dtb.stage2_mmu.stage2_tlb.prefetch_faults            0                       # Number of TLB faults due to prefetch
system.cpu01.dtb.stage2_mmu.stage2_tlb.read_accesses            0                       # DTB read accesses
system.cpu01.dtb.stage2_mmu.stage2_tlb.read_hits            0                       # DTB read hits
system.cpu01.dtb.stage2_mmu.stage2_tlb.read_misses            0                       # DTB read misses
system.cpu01.dtb.stage2_mmu.stage2_tlb.walker.walkRequestOrigin_Requested::Data            0                       # Table walker requests started/completed, data/inst
system.cpu01.dtb.stage2_mmu.stage2_tlb.walker.walkRequestOrigin_Requested::Inst            0                       # Table walker requests started/completed, data/inst
system.cpu01.dtb.stage2_mmu.stage2_tlb.walker.walkRequestOrigin_Requested::total            0                       # Table walker requests started/completed, data/inst
system.cpu01.dtb.stage2_mmu.stage2_tlb.walker.walkRequestOrigin_Completed::Data            0                       # Table walker requests started/completed, data/inst
system.cpu01.dtb.stage2_mmu.stage2_tlb.walker.walkRequestOrigin_Completed::Inst            0                       # Table walker requests started/completed, data/inst
system.cpu01.dtb.stage2_mmu.stage2_tlb.walker.walkRequestOrigin_Completed::total            0                       # Table walker requests started/completed, data/inst
system.cpu01.dtb.stage2_mmu.stage2_tlb.walker.walkRequestOrigin::total            0                       # Table walker requests started/completed, data/inst
system.cpu01.dtb.stage2_mmu.stage2_tlb.walker.walks            0                       # Table walker walks requested
system.cpu01.dtb.stage2_mmu.stage2_tlb.write_accesses            0                       # DTB write accesses
system.cpu01.dtb.stage2_mmu.stage2_tlb.write_hits            0                       # DTB write hits
system.cpu01.dtb.stage2_mmu.stage2_tlb.write_misses            0                       # DTB write misses
system.cpu01.dtb.walker.walkRequestOrigin_Requested::Data            0                       # Table walker requests started/completed, data/inst
system.cpu01.dtb.walker.walkRequestOrigin_Requested::Inst            0                       # Table walker requests started/completed, data/inst
system.cpu01.dtb.walker.walkRequestOrigin_Requested::total            0                       # Table walker requests started/completed, data/inst
system.cpu01.dtb.walker.walkRequestOrigin_Completed::Data            0                       # Table walker requests started/completed, data/inst
system.cpu01.dtb.walker.walkRequestOrigin_Completed::Inst            0                       # Table walker requests started/completed, data/inst
system.cpu01.dtb.walker.walkRequestOrigin_Completed::total            0                       # Table walker requests started/completed, data/inst
system.cpu01.dtb.walker.walkRequestOrigin::total            0                       # Table walker requests started/completed, data/inst
system.cpu01.dtb.walker.walks                       0                       # Table walker walks requested
system.cpu01.dtb.write_accesses                     0                       # DTB write accesses
system.cpu01.dtb.write_hits                         0                       # DTB write hits
system.cpu01.dtb.write_misses                       0                       # DTB write misses
system.cpu01.idle_fraction                          0                       # Percentage of idle cycles
system.cpu01.itb.accesses                           0                       # DTB accesses
system.cpu01.itb.align_faults                       0                       # Number of TLB faults due to alignment restrictions
system.cpu01.itb.domain_faults                      0                       # Number of TLB faults due to domain restrictions
system.cpu01.itb.flush_entries                      0                       # Number of entries that have been flushed from TLB
system.cpu01.itb.flush_tlb                          0                       # Number of times complete TLB was flushed
system.cpu01.itb.flush_tlb_asid                     0                       # Number of times TLB was flushed by ASID
system.cpu01.itb.flush_tlb_mva                      0                       # Number of times TLB was flushed by MVA
system.cpu01.itb.flush_tlb_mva_asid                 0                       # Number of times TLB was flushed by MVA & ASID
system.cpu01.itb.hits                               0                       # DTB hits
system.cpu01.itb.inst_accesses                      0                       # ITB inst accesses
system.cpu01.itb.inst_hits                          0                       # ITB inst hits
system.cpu01.itb.inst_misses                        0                       # ITB inst misses
system.cpu01.itb.misses                             0                       # DTB misses
system.cpu01.itb.perms_faults                       0                       # Number of TLB faults due to permissions restrictions
system.cpu01.itb.prefetch_faults                    0                       # Number of TLB faults due to prefetch
system.cpu01.itb.read_accesses                      0                       # DTB read accesses
system.cpu01.itb.read_hits                          0                       # DTB read hits
system.cpu01.itb.read_misses                        0                       # DTB read misses
system.cpu01.itb.stage2_mmu.stage2_tlb.accesses            0                       # DTB accesses
system.cpu01.itb.stage2_mmu.stage2_tlb.align_faults            0                       # Number of TLB faults due to alignment restrictions
system.cpu01.itb.stage2_mmu.stage2_tlb.domain_faults            0                       # Number of TLB faults due to domain restrictions
system.cpu01.itb.stage2_mmu.stage2_tlb.flush_entries            0                       # Number of entries that have been flushed from TLB
system.cpu01.itb.stage2_mmu.stage2_tlb.flush_tlb            0                       # Number of times complete TLB was flushed
system.cpu01.itb.stage2_mmu.stage2_tlb.flush_tlb_asid            0                       # Number of times TLB was flushed by ASID
system.cpu01.itb.stage2_mmu.stage2_tlb.flush_tlb_mva            0                       # Number of times TLB was flushed by MVA
system.cpu01.itb.stage2_mmu.stage2_tlb.flush_tlb_mva_asid            0                       # Number of times TLB was flushed by MVA & ASID
system.cpu01.itb.stage2_mmu.stage2_tlb.hits            0                       # DTB hits
system.cpu01.itb.stage2_mmu.stage2_tlb.inst_accesses            0                       # ITB inst accesses
system.cpu01.itb.stage2_mmu.stage2_tlb.inst_hits            0                       # ITB inst hits
system.cpu01.itb.stage2_mmu.stage2_tlb.inst_misses            0                       # ITB inst misses
system.cpu01.itb.stage2_mmu.stage2_tlb.misses            0                       # DTB misses
system.cpu01.itb.stage2_mmu.stage2_tlb.perms_faults            0                       # Number of TLB faults due to permissions restrictions
system.cpu01.itb.stage2_mmu.stage2_tlb.prefetch_faults            0                       # Number of TLB faults due to prefetch
system.cpu01.itb.stage2_mmu.stage2_tlb.read_accesses            0                       # DTB read accesses
system.cpu01.itb.stage2_mmu.stage2_tlb.read_hits            0                       # DTB read hits
system.cpu01.itb.stage2_mmu.stage2_tlb.read_misses            0                       # DTB read misses
system.cpu01.itb.stage2_mmu.stage2_tlb.walker.walkRequestOrigin_Requested::Data            0                       # Table walker requests started/completed, data/inst
system.cpu01.itb.stage2_mmu.stage2_tlb.walker.walkRequestOrigin_Requested::Inst            0                       # Table walker requests started/completed, data/inst
system.cpu01.itb.stage2_mmu.stage2_tlb.walker.walkRequestOrigin_Requested::total            0                       # Table walker requests started/completed, data/inst
system.cpu01.itb.stage2_mmu.stage2_tlb.walker.walkRequestOrigin_Completed::Data            0                       # Table walker requests started/completed, data/inst
system.cpu01.itb.stage2_mmu.stage2_tlb.walker.walkRequestOrigin_Completed::Inst            0                       # Table walker requests started/completed, data/inst
system.cpu01.itb.stage2_mmu.stage2_tlb.walker.walkRequestOrigin_Completed::total            0                       # Table walker requests started/completed, data/inst
system.cpu01.itb.stage2_mmu.stage2_tlb.walker.walkRequestOrigin::total            0                       # Table walker requests started/completed, data/inst
system.cpu01.itb.stage2_mmu.stage2_tlb.walker.walks            0                       # Table walker walks requested
system.cpu01.itb.stage2_mmu.stage2_tlb.write_accesses            0                       # DTB write accesses
system.cpu01.itb.stage2_mmu.stage2_tlb.write_hits            0                       # DTB write hits
system.cpu01.itb.stage2_mmu.stage2_tlb.write_misses            0                       # DTB write misses
system.cpu01.itb.walker.walkRequestOrigin_Requested::Data            0                       # Table walker requests started/completed, data/inst
system.cpu01.itb.walker.walkRequestOrigin_Requested::Inst            0                       # Table walker requests started/completed, data/inst
system.cpu01.itb.walker.walkRequestOrigin_Requested::total            0                       # Table walker requests started/completed, data/inst
system.cpu01.itb.walker.walkRequestOrigin_Completed::Data            0                       # Table walker requests started/completed, data/inst
system.cpu01.itb.walker.walkRequestOrigin_Completed::Inst            0                       # Table walker requests started/completed, data/inst
system.cpu01.itb.walker.walkRequestOrigin_Completed::total            0                       # Table walker requests started/completed, data/inst
system.cpu01.itb.walker.walkRequestOrigin::total            0                       # Table walker requests started/completed, data/inst
system.cpu01.itb.walker.walks                       0                       # Table walker walks requested
system.cpu01.itb.write_accesses                     0                       # DTB write accesses
system.cpu01.itb.write_hits                         0                       # DTB write hits
system.cpu01.itb.write_misses                       0                       # DTB write misses
system.cpu01.not_idle_fraction                      1                       # Percentage of non-idle cycles
system.cpu01.numCycles                              0                       # number of cpu cycles simulated
system.cpu01.numWorkItemsCompleted                  0                       # number of work items this cpu completed
system.cpu01.numWorkItemsStarted                    0                       # number of work items this cpu started
system.cpu01.num_busy_cycles                        0                       # Number of busy cycles
system.cpu01.num_conditional_control_insts            0                       # number of instructions that are conditional controls
system.cpu01.num_fp_alu_accesses                    0                       # Number of float alu accesses
system.cpu01.num_fp_insts                           0                       # number of float instructions
system.cpu01.num_fp_register_reads                  0                       # number of times the floating registers were read
system.cpu01.num_fp_register_writes                 0                       # number of times the floating registers were written
system.cpu01.num_func_calls                         0                       # number of times a function call or return occured
system.cpu01.num_idle_cycles                        0                       # Number of idle cycles
system.cpu01.num_int_alu_accesses                   0                       # Number of integer alu accesses
system.cpu01.num_int_insts                          0                       # number of integer instructions
system.cpu01.num_int_register_reads                 0                       # number of times the integer registers were read
system.cpu01.num_int_register_writes                0                       # number of times the integer registers were written
system.cpu01.num_load_insts                         0                       # Number of load instructions
system.cpu01.num_mem_refs                           0                       # number of memory refs
system.cpu01.num_store_insts                        0                       # Number of store instructions
system.cpu01.num_vec_alu_accesses                   0                       # Number of vector alu accesses
system.cpu01.num_vec_insts                          0                       # number of vector instructions
system.cpu01.num_vec_register_reads                 0                       # number of times the vector registers were read
system.cpu01.num_vec_register_writes                0                       # number of times the vector registers were written
system.cpu01.op_class::No_OpClass                   0                       # Class of executed instruction
system.cpu01.op_class::IntAlu                       0                       # Class of executed instruction
system.cpu01.op_class::IntMult                      0                       # Class of executed instruction
system.cpu01.op_class::IntDiv                       0                       # Class of executed instruction
system.cpu01.op_class::FloatAdd                     0                       # Class of executed instruction
system.cpu01.op_class::FloatCmp                     0                       # Class of executed instruction
system.cpu01.op_class::FloatCvt                     0                       # Class of executed instruction
system.cpu01.op_class::FloatMult                    0                       # Class of executed instruction
system.cpu01.op_class::FloatMultAcc                 0                       # Class of executed instruction
system.cpu01.op_class::FloatDiv                     0                       # Class of executed instruction
system.cpu01.op_class::FloatMisc                    0                       # Class of executed instruction
system.cpu01.op_class::FloatSqrt                    0                       # Class of executed instruction
system.cpu01.op_class::SimdAdd                      0                       # Class of executed instruction
system.cpu01.op_class::SimdAddAcc                   0                       # Class of executed instruction
system.cpu01.op_class::SimdAlu                      0                       # Class of executed instruction
system.cpu01.op_class::SimdCmp                      0                       # Class of executed instruction
system.cpu01.op_class::SimdCvt                      0                       # Class of executed instruction
system.cpu01.op_class::SimdMisc                     0                       # Class of executed instruction
system.cpu01.op_class::SimdMult                     0                       # Class of executed instruction
system.cpu01.op_class::SimdMultAcc                  0                       # Class of executed instruction
system.cpu01.op_class::SimdShift                    0                       # Class of executed instruction
system.cpu01.op_class::SimdShiftAcc                 0                       # Class of executed instruction
system.cpu01.op_class::SimdDiv                      0                       # Class of executed instruction
system.cpu01.op_class::SimdSqrt                     0                       # Class of executed instruction
system.cpu01.op_class::SimdFloatAdd                 0                       # Class of executed instruction
system.cpu01.op_class::SimdFloatAlu                 0                       # Class of executed instruction
system.cpu01.op_class::SimdFloatCmp                 0                       # Class of executed instruction
system.cpu01.op_class::SimdFloatCvt                 0                       # Class of executed instruction
system.cpu01.op_class::SimdFloatDiv                 0                       # Class of executed instruction
system.cpu01.op_class::SimdFloatMisc                0                       # Class of executed instruction
system.cpu01.op_class::SimdFloatMult                0                       # Class of executed instruction
system.cpu01.op_class::SimdFloatMultAcc             0                       # Class of executed instruction
system.cpu01.op_class::SimdFloatSqrt                0                       # Class of executed instruction
system.cpu01.op_class::SimdReduceAdd                0                       # Class of executed instruction
system.cpu01.op_class::SimdReduceAlu                0                       # Class of executed instruction
system.cpu01.op_class::SimdReduceCmp                0                       # Class of executed instruction
system.cpu01.op_class::SimdFloatReduceAdd            0                       # Class of executed instruction
system.cpu01.op_class::SimdFloatReduceCmp            0                       # Class of executed instruction
system.cpu01.op_class::SimdAes                      0                       # Class of executed instruction
system.cpu01.op_class::SimdAesMix                   0                       # Class of executed instruction
system.cpu01.op_class::SimdSha1Hash                 0                       # Class of executed instruction
system.cpu01.op_class::SimdSha1Hash2                0                       # Class of executed instruction
system.cpu01.op_class::SimdSha256Hash               0                       # Class of executed instruction
system.cpu01.op_class::SimdSha256Hash2              0                       # Class of executed instruction
system.cpu01.op_class::SimdShaSigma2                0                       # Class of executed instruction
system.cpu01.op_class::SimdShaSigma3                0                       # Class of executed instruction
system.cpu01.op_class::SimdPredAlu                  0                       # Class of executed instruction
system.cpu01.op_class::MemRead                      0                       # Class of executed instruction
system.cpu01.op_class::MemWrite                     0                       # Class of executed instruction
system.cpu01.op_class::FloatMemRead                 0                       # Class of executed instruction
system.cpu01.op_class::FloatMemWrite                0                       # Class of executed instruction
system.cpu01.op_class::IprAccess                    0                       # Class of executed instruction
system.cpu01.op_class::InstPrefetch                 0                       # Class of executed instruction
system.cpu01.op_class::total                        0                       # Class of executed instruction
system.cpu02.committedInsts                         0                       # Number of instructions committed
system.cpu02.committedOps                           0                       # Number of ops (including micro ops) committed
system.cpu02.dtb.accesses                           0                       # DTB accesses
system.cpu02.dtb.align_faults                       0                       # Number of TLB faults due to alignment restrictions
system.cpu02.dtb.domain_faults                      0                       # Number of TLB faults due to domain restrictions
system.cpu02.dtb.flush_entries                      0                       # Number of entries that have been flushed from TLB
system.cpu02.dtb.flush_tlb                          0                       # Number of times complete TLB was flushed
system.cpu02.dtb.flush_tlb_asid                     0                       # Number of times TLB was flushed by ASID
system.cpu02.dtb.flush_tlb_mva                      0                       # Number of times TLB was flushed by MVA
system.cpu02.dtb.flush_tlb_mva_asid                 0                       # Number of times TLB was flushed by MVA & ASID
system.cpu02.dtb.hits                               0                       # DTB hits
system.cpu02.dtb.inst_accesses                      0                       # ITB inst accesses
system.cpu02.dtb.inst_hits                          0                       # ITB inst hits
system.cpu02.dtb.inst_misses                        0                       # ITB inst misses
system.cpu02.dtb.misses                             0                       # DTB misses
system.cpu02.dtb.perms_faults                       0                       # Number of TLB faults due to permissions restrictions
system.cpu02.dtb.prefetch_faults                    0                       # Number of TLB faults due to prefetch
system.cpu02.dtb.read_accesses                      0                       # DTB read accesses
system.cpu02.dtb.read_hits                          0                       # DTB read hits
system.cpu02.dtb.read_misses                        0                       # DTB read misses
system.cpu02.dtb.stage2_mmu.stage2_tlb.accesses            0                       # DTB accesses
system.cpu02.dtb.stage2_mmu.stage2_tlb.align_faults            0                       # Number of TLB faults due to alignment restrictions
system.cpu02.dtb.stage2_mmu.stage2_tlb.domain_faults            0                       # Number of TLB faults due to domain restrictions
system.cpu02.dtb.stage2_mmu.stage2_tlb.flush_entries            0                       # Number of entries that have been flushed from TLB
system.cpu02.dtb.stage2_mmu.stage2_tlb.flush_tlb            0                       # Number of times complete TLB was flushed
system.cpu02.dtb.stage2_mmu.stage2_tlb.flush_tlb_asid            0                       # Number of times TLB was flushed by ASID
system.cpu02.dtb.stage2_mmu.stage2_tlb.flush_tlb_mva            0                       # Number of times TLB was flushed by MVA
system.cpu02.dtb.stage2_mmu.stage2_tlb.flush_tlb_mva_asid            0                       # Number of times TLB was flushed by MVA & ASID
system.cpu02.dtb.stage2_mmu.stage2_tlb.hits            0                       # DTB hits
system.cpu02.dtb.stage2_mmu.stage2_tlb.inst_accesses            0                       # ITB inst accesses
system.cpu02.dtb.stage2_mmu.stage2_tlb.inst_hits            0                       # ITB inst hits
system.cpu02.dtb.stage2_mmu.stage2_tlb.inst_misses            0                       # ITB inst misses
system.cpu02.dtb.stage2_mmu.stage2_tlb.misses            0                       # DTB misses
system.cpu02.dtb.stage2_mmu.stage2_tlb.perms_faults            0                       # Number of TLB faults due to permissions restrictions
system.cpu02.dtb.stage2_mmu.stage2_tlb.prefetch_faults            0                       # Number of TLB faults due to prefetch
system.cpu02.dtb.stage2_mmu.stage2_tlb.read_accesses            0                       # DTB read accesses
system.cpu02.dtb.stage2_mmu.stage2_tlb.read_hits            0                       # DTB read hits
system.cpu02.dtb.stage2_mmu.stage2_tlb.read_misses            0                       # DTB read misses
system.cpu02.dtb.stage2_mmu.stage2_tlb.walker.walkRequestOrigin_Requested::Data            0                       # Table walker requests started/completed, data/inst
system.cpu02.dtb.stage2_mmu.stage2_tlb.walker.walkRequestOrigin_Requested::Inst            0                       # Table walker requests started/completed, data/inst
system.cpu02.dtb.stage2_mmu.stage2_tlb.walker.walkRequestOrigin_Requested::total            0                       # Table walker requests started/completed, data/inst
system.cpu02.dtb.stage2_mmu.stage2_tlb.walker.walkRequestOrigin_Completed::Data            0                       # Table walker requests started/completed, data/inst
system.cpu02.dtb.stage2_mmu.stage2_tlb.walker.walkRequestOrigin_Completed::Inst            0                       # Table walker requests started/completed, data/inst
system.cpu02.dtb.stage2_mmu.stage2_tlb.walker.walkRequestOrigin_Completed::total            0                       # Table walker requests started/completed, data/inst
system.cpu02.dtb.stage2_mmu.stage2_tlb.walker.walkRequestOrigin::total            0                       # Table walker requests started/completed, data/inst
system.cpu02.dtb.stage2_mmu.stage2_tlb.walker.walks            0                       # Table walker walks requested
system.cpu02.dtb.stage2_mmu.stage2_tlb.write_accesses            0                       # DTB write accesses
system.cpu02.dtb.stage2_mmu.stage2_tlb.write_hits            0                       # DTB write hits
system.cpu02.dtb.stage2_mmu.stage2_tlb.write_misses            0                       # DTB write misses
system.cpu02.dtb.walker.walkRequestOrigin_Requested::Data            0                       # Table walker requests started/completed, data/inst
system.cpu02.dtb.walker.walkRequestOrigin_Requested::Inst            0                       # Table walker requests started/completed, data/inst
system.cpu02.dtb.walker.walkRequestOrigin_Requested::total            0                       # Table walker requests started/completed, data/inst
system.cpu02.dtb.walker.walkRequestOrigin_Completed::Data            0                       # Table walker requests started/completed, data/inst
system.cpu02.dtb.walker.walkRequestOrigin_Completed::Inst            0                       # Table walker requests started/completed, data/inst
system.cpu02.dtb.walker.walkRequestOrigin_Completed::total            0                       # Table walker requests started/completed, data/inst
system.cpu02.dtb.walker.walkRequestOrigin::total            0                       # Table walker requests started/completed, data/inst
system.cpu02.dtb.walker.walks                       0                       # Table walker walks requested
system.cpu02.dtb.write_accesses                     0                       # DTB write accesses
system.cpu02.dtb.write_hits                         0                       # DTB write hits
system.cpu02.dtb.write_misses                       0                       # DTB write misses
system.cpu02.idle_fraction                          0                       # Percentage of idle cycles
system.cpu02.itb.accesses                           0                       # DTB accesses
system.cpu02.itb.align_faults                       0                       # Number of TLB faults due to alignment restrictions
system.cpu02.itb.domain_faults                      0                       # Number of TLB faults due to domain restrictions
system.cpu02.itb.flush_entries                      0                       # Number of entries that have been flushed from TLB
system.cpu02.itb.flush_tlb                          0                       # Number of times complete TLB was flushed
system.cpu02.itb.flush_tlb_asid                     0                       # Number of times TLB was flushed by ASID
system.cpu02.itb.flush_tlb_mva                      0                       # Number of times TLB was flushed by MVA
system.cpu02.itb.flush_tlb_mva_asid                 0                       # Number of times TLB was flushed by MVA & ASID
system.cpu02.itb.hits                               0                       # DTB hits
system.cpu02.itb.inst_accesses                      0                       # ITB inst accesses
system.cpu02.itb.inst_hits                          0                       # ITB inst hits
system.cpu02.itb.inst_misses                        0                       # ITB inst misses
system.cpu02.itb.misses                             0                       # DTB misses
system.cpu02.itb.perms_faults                       0                       # Number of TLB faults due to permissions restrictions
system.cpu02.itb.prefetch_faults                    0                       # Number of TLB faults due to prefetch
system.cpu02.itb.read_accesses                      0                       # DTB read accesses
system.cpu02.itb.read_hits                          0                       # DTB read hits
system.cpu02.itb.read_misses                        0                       # DTB read misses
system.cpu02.itb.stage2_mmu.stage2_tlb.accesses            0                       # DTB accesses
system.cpu02.itb.stage2_mmu.stage2_tlb.align_faults            0                       # Number of TLB faults due to alignment restrictions
system.cpu02.itb.stage2_mmu.stage2_tlb.domain_faults            0                       # Number of TLB faults due to domain restrictions
system.cpu02.itb.stage2_mmu.stage2_tlb.flush_entries            0                       # Number of entries that have been flushed from TLB
system.cpu02.itb.stage2_mmu.stage2_tlb.flush_tlb            0                       # Number of times complete TLB was flushed
system.cpu02.itb.stage2_mmu.stage2_tlb.flush_tlb_asid            0                       # Number of times TLB was flushed by ASID
system.cpu02.itb.stage2_mmu.stage2_tlb.flush_tlb_mva            0                       # Number of times TLB was flushed by MVA
system.cpu02.itb.stage2_mmu.stage2_tlb.flush_tlb_mva_asid            0                       # Number of times TLB was flushed by MVA & ASID
system.cpu02.itb.stage2_mmu.stage2_tlb.hits            0                       # DTB hits
system.cpu02.itb.stage2_mmu.stage2_tlb.inst_accesses            0                       # ITB inst accesses
system.cpu02.itb.stage2_mmu.stage2_tlb.inst_hits            0                       # ITB inst hits
system.cpu02.itb.stage2_mmu.stage2_tlb.inst_misses            0                       # ITB inst misses
system.cpu02.itb.stage2_mmu.stage2_tlb.misses            0                       # DTB misses
system.cpu02.itb.stage2_mmu.stage2_tlb.perms_faults            0                       # Number of TLB faults due to permissions restrictions
system.cpu02.itb.stage2_mmu.stage2_tlb.prefetch_faults            0                       # Number of TLB faults due to prefetch
system.cpu02.itb.stage2_mmu.stage2_tlb.read_accesses            0                       # DTB read accesses
system.cpu02.itb.stage2_mmu.stage2_tlb.read_hits            0                       # DTB read hits
system.cpu02.itb.stage2_mmu.stage2_tlb.read_misses            0                       # DTB read misses
system.cpu02.itb.stage2_mmu.stage2_tlb.walker.walkRequestOrigin_Requested::Data            0                       # Table walker requests started/completed, data/inst
system.cpu02.itb.stage2_mmu.stage2_tlb.walker.walkRequestOrigin_Requested::Inst            0                       # Table walker requests started/completed, data/inst
system.cpu02.itb.stage2_mmu.stage2_tlb.walker.walkRequestOrigin_Requested::total            0                       # Table walker requests started/completed, data/inst
system.cpu02.itb.stage2_mmu.stage2_tlb.walker.walkRequestOrigin_Completed::Data            0                       # Table walker requests started/completed, data/inst
system.cpu02.itb.stage2_mmu.stage2_tlb.walker.walkRequestOrigin_Completed::Inst            0                       # Table walker requests started/completed, data/inst
system.cpu02.itb.stage2_mmu.stage2_tlb.walker.walkRequestOrigin_Completed::total            0                       # Table walker requests started/completed, data/inst
system.cpu02.itb.stage2_mmu.stage2_tlb.walker.walkRequestOrigin::total            0                       # Table walker requests started/completed, data/inst
system.cpu02.itb.stage2_mmu.stage2_tlb.walker.walks            0                       # Table walker walks requested
system.cpu02.itb.stage2_mmu.stage2_tlb.write_accesses            0                       # DTB write accesses
system.cpu02.itb.stage2_mmu.stage2_tlb.write_hits            0                       # DTB write hits
system.cpu02.itb.stage2_mmu.stage2_tlb.write_misses            0                       # DTB write misses
system.cpu02.itb.walker.walkRequestOrigin_Requested::Data            0                       # Table walker requests started/completed, data/inst
system.cpu02.itb.walker.walkRequestOrigin_Requested::Inst            0                       # Table walker requests started/completed, data/inst
system.cpu02.itb.walker.walkRequestOrigin_Requested::total            0                       # Table walker requests started/completed, data/inst
system.cpu02.itb.walker.walkRequestOrigin_Completed::Data            0                       # Table walker requests started/completed, data/inst
system.cpu02.itb.walker.walkRequestOrigin_Completed::Inst            0                       # Table walker requests started/completed, data/inst
system.cpu02.itb.walker.walkRequestOrigin_Completed::total            0                       # Table walker requests started/completed, data/inst
system.cpu02.itb.walker.walkRequestOrigin::total            0                       # Table walker requests started/completed, data/inst
system.cpu02.itb.walker.walks                       0                       # Table walker walks requested
system.cpu02.itb.write_accesses                     0                       # DTB write accesses
system.cpu02.itb.write_hits                         0                       # DTB write hits
system.cpu02.itb.write_misses                       0                       # DTB write misses
system.cpu02.not_idle_fraction                      1                       # Percentage of non-idle cycles
system.cpu02.numCycles                              0                       # number of cpu cycles simulated
system.cpu02.numWorkItemsCompleted                  0                       # number of work items this cpu completed
system.cpu02.numWorkItemsStarted                    0                       # number of work items this cpu started
system.cpu02.num_busy_cycles                        0                       # Number of busy cycles
system.cpu02.num_conditional_control_insts            0                       # number of instructions that are conditional controls
system.cpu02.num_fp_alu_accesses                    0                       # Number of float alu accesses
system.cpu02.num_fp_insts                           0                       # number of float instructions
system.cpu02.num_fp_register_reads                  0                       # number of times the floating registers were read
system.cpu02.num_fp_register_writes                 0                       # number of times the floating registers were written
system.cpu02.num_func_calls                         0                       # number of times a function call or return occured
system.cpu02.num_idle_cycles                        0                       # Number of idle cycles
system.cpu02.num_int_alu_accesses                   0                       # Number of integer alu accesses
system.cpu02.num_int_insts                          0                       # number of integer instructions
system.cpu02.num_int_register_reads                 0                       # number of times the integer registers were read
system.cpu02.num_int_register_writes                0                       # number of times the integer registers were written
system.cpu02.num_load_insts                         0                       # Number of load instructions
system.cpu02.num_mem_refs                           0                       # number of memory refs
system.cpu02.num_store_insts                        0                       # Number of store instructions
system.cpu02.num_vec_alu_accesses                   0                       # Number of vector alu accesses
system.cpu02.num_vec_insts                          0                       # number of vector instructions
system.cpu02.num_vec_register_reads                 0                       # number of times the vector registers were read
system.cpu02.num_vec_register_writes                0                       # number of times the vector registers were written
system.cpu02.op_class::No_OpClass                   0                       # Class of executed instruction
system.cpu02.op_class::IntAlu                       0                       # Class of executed instruction
system.cpu02.op_class::IntMult                      0                       # Class of executed instruction
system.cpu02.op_class::IntDiv                       0                       # Class of executed instruction
system.cpu02.op_class::FloatAdd                     0                       # Class of executed instruction
system.cpu02.op_class::FloatCmp                     0                       # Class of executed instruction
system.cpu02.op_class::FloatCvt                     0                       # Class of executed instruction
system.cpu02.op_class::FloatMult                    0                       # Class of executed instruction
system.cpu02.op_class::FloatMultAcc                 0                       # Class of executed instruction
system.cpu02.op_class::FloatDiv                     0                       # Class of executed instruction
system.cpu02.op_class::FloatMisc                    0                       # Class of executed instruction
system.cpu02.op_class::FloatSqrt                    0                       # Class of executed instruction
system.cpu02.op_class::SimdAdd                      0                       # Class of executed instruction
system.cpu02.op_class::SimdAddAcc                   0                       # Class of executed instruction
system.cpu02.op_class::SimdAlu                      0                       # Class of executed instruction
system.cpu02.op_class::SimdCmp                      0                       # Class of executed instruction
system.cpu02.op_class::SimdCvt                      0                       # Class of executed instruction
system.cpu02.op_class::SimdMisc                     0                       # Class of executed instruction
system.cpu02.op_class::SimdMult                     0                       # Class of executed instruction
system.cpu02.op_class::SimdMultAcc                  0                       # Class of executed instruction
system.cpu02.op_class::SimdShift                    0                       # Class of executed instruction
system.cpu02.op_class::SimdShiftAcc                 0                       # Class of executed instruction
system.cpu02.op_class::SimdDiv                      0                       # Class of executed instruction
system.cpu02.op_class::SimdSqrt                     0                       # Class of executed instruction
system.cpu02.op_class::SimdFloatAdd                 0                       # Class of executed instruction
system.cpu02.op_class::SimdFloatAlu                 0                       # Class of executed instruction
system.cpu02.op_class::SimdFloatCmp                 0                       # Class of executed instruction
system.cpu02.op_class::SimdFloatCvt                 0                       # Class of executed instruction
system.cpu02.op_class::SimdFloatDiv                 0                       # Class of executed instruction
system.cpu02.op_class::SimdFloatMisc                0                       # Class of executed instruction
system.cpu02.op_class::SimdFloatMult                0                       # Class of executed instruction
system.cpu02.op_class::SimdFloatMultAcc             0                       # Class of executed instruction
system.cpu02.op_class::SimdFloatSqrt                0                       # Class of executed instruction
system.cpu02.op_class::SimdReduceAdd                0                       # Class of executed instruction
system.cpu02.op_class::SimdReduceAlu                0                       # Class of executed instruction
system.cpu02.op_class::SimdReduceCmp                0                       # Class of executed instruction
system.cpu02.op_class::SimdFloatReduceAdd            0                       # Class of executed instruction
system.cpu02.op_class::SimdFloatReduceCmp            0                       # Class of executed instruction
system.cpu02.op_class::SimdAes                      0                       # Class of executed instruction
system.cpu02.op_class::SimdAesMix                   0                       # Class of executed instruction
system.cpu02.op_class::SimdSha1Hash                 0                       # Class of executed instruction
system.cpu02.op_class::SimdSha1Hash2                0                       # Class of executed instruction
system.cpu02.op_class::SimdSha256Hash               0                       # Class of executed instruction
system.cpu02.op_class::SimdSha256Hash2              0                       # Class of executed instruction
system.cpu02.op_class::SimdShaSigma2                0                       # Class of executed instruction
system.cpu02.op_class::SimdShaSigma3                0                       # Class of executed instruction
system.cpu02.op_class::SimdPredAlu                  0                       # Class of executed instruction
system.cpu02.op_class::MemRead                      0                       # Class of executed instruction
system.cpu02.op_class::MemWrite                     0                       # Class of executed instruction
system.cpu02.op_class::FloatMemRead                 0                       # Class of executed instruction
system.cpu02.op_class::FloatMemWrite                0                       # Class of executed instruction
system.cpu02.op_class::IprAccess                    0                       # Class of executed instruction
system.cpu02.op_class::InstPrefetch                 0                       # Class of executed instruction
system.cpu02.op_class::total                        0                       # Class of executed instruction
system.cpu03.committedInsts                         0                       # Number of instructions committed
system.cpu03.committedOps                           0                       # Number of ops (including micro ops) committed
system.cpu03.dtb.accesses                           0                       # DTB accesses
system.cpu03.dtb.align_faults                       0                       # Number of TLB faults due to alignment restrictions
system.cpu03.dtb.domain_faults                      0                       # Number of TLB faults due to domain restrictions
system.cpu03.dtb.flush_entries                      0                       # Number of entries that have been flushed from TLB
system.cpu03.dtb.flush_tlb                          0                       # Number of times complete TLB was flushed
system.cpu03.dtb.flush_tlb_asid                     0                       # Number of times TLB was flushed by ASID
system.cpu03.dtb.flush_tlb_mva                      0                       # Number of times TLB was flushed by MVA
system.cpu03.dtb.flush_tlb_mva_asid                 0                       # Number of times TLB was flushed by MVA & ASID
system.cpu03.dtb.hits                               0                       # DTB hits
system.cpu03.dtb.inst_accesses                      0                       # ITB inst accesses
system.cpu03.dtb.inst_hits                          0                       # ITB inst hits
system.cpu03.dtb.inst_misses                        0                       # ITB inst misses
system.cpu03.dtb.misses                             0                       # DTB misses
system.cpu03.dtb.perms_faults                       0                       # Number of TLB faults due to permissions restrictions
system.cpu03.dtb.prefetch_faults                    0                       # Number of TLB faults due to prefetch
system.cpu03.dtb.read_accesses                      0                       # DTB read accesses
system.cpu03.dtb.read_hits                          0                       # DTB read hits
system.cpu03.dtb.read_misses                        0                       # DTB read misses
system.cpu03.dtb.stage2_mmu.stage2_tlb.accesses            0                       # DTB accesses
system.cpu03.dtb.stage2_mmu.stage2_tlb.align_faults            0                       # Number of TLB faults due to alignment restrictions
system.cpu03.dtb.stage2_mmu.stage2_tlb.domain_faults            0                       # Number of TLB faults due to domain restrictions
system.cpu03.dtb.stage2_mmu.stage2_tlb.flush_entries            0                       # Number of entries that have been flushed from TLB
system.cpu03.dtb.stage2_mmu.stage2_tlb.flush_tlb            0                       # Number of times complete TLB was flushed
system.cpu03.dtb.stage2_mmu.stage2_tlb.flush_tlb_asid            0                       # Number of times TLB was flushed by ASID
system.cpu03.dtb.stage2_mmu.stage2_tlb.flush_tlb_mva            0                       # Number of times TLB was flushed by MVA
system.cpu03.dtb.stage2_mmu.stage2_tlb.flush_tlb_mva_asid            0                       # Number of times TLB was flushed by MVA & ASID
system.cpu03.dtb.stage2_mmu.stage2_tlb.hits            0                       # DTB hits
system.cpu03.dtb.stage2_mmu.stage2_tlb.inst_accesses            0                       # ITB inst accesses
system.cpu03.dtb.stage2_mmu.stage2_tlb.inst_hits            0                       # ITB inst hits
system.cpu03.dtb.stage2_mmu.stage2_tlb.inst_misses            0                       # ITB inst misses
system.cpu03.dtb.stage2_mmu.stage2_tlb.misses            0                       # DTB misses
system.cpu03.dtb.stage2_mmu.stage2_tlb.perms_faults            0                       # Number of TLB faults due to permissions restrictions
system.cpu03.dtb.stage2_mmu.stage2_tlb.prefetch_faults            0                       # Number of TLB faults due to prefetch
system.cpu03.dtb.stage2_mmu.stage2_tlb.read_accesses            0                       # DTB read accesses
system.cpu03.dtb.stage2_mmu.stage2_tlb.read_hits            0                       # DTB read hits
system.cpu03.dtb.stage2_mmu.stage2_tlb.read_misses            0                       # DTB read misses
system.cpu03.dtb.stage2_mmu.stage2_tlb.walker.walkRequestOrigin_Requested::Data            0                       # Table walker requests started/completed, data/inst
system.cpu03.dtb.stage2_mmu.stage2_tlb.walker.walkRequestOrigin_Requested::Inst            0                       # Table walker requests started/completed, data/inst
system.cpu03.dtb.stage2_mmu.stage2_tlb.walker.walkRequestOrigin_Requested::total            0                       # Table walker requests started/completed, data/inst
system.cpu03.dtb.stage2_mmu.stage2_tlb.walker.walkRequestOrigin_Completed::Data            0                       # Table walker requests started/completed, data/inst
system.cpu03.dtb.stage2_mmu.stage2_tlb.walker.walkRequestOrigin_Completed::Inst            0                       # Table walker requests started/completed, data/inst
system.cpu03.dtb.stage2_mmu.stage2_tlb.walker.walkRequestOrigin_Completed::total            0                       # Table walker requests started/completed, data/inst
system.cpu03.dtb.stage2_mmu.stage2_tlb.walker.walkRequestOrigin::total            0                       # Table walker requests started/completed, data/inst
system.cpu03.dtb.stage2_mmu.stage2_tlb.walker.walks            0                       # Table walker walks requested
system.cpu03.dtb.stage2_mmu.stage2_tlb.write_accesses            0                       # DTB write accesses
system.cpu03.dtb.stage2_mmu.stage2_tlb.write_hits            0                       # DTB write hits
system.cpu03.dtb.stage2_mmu.stage2_tlb.write_misses            0                       # DTB write misses
system.cpu03.dtb.walker.walkRequestOrigin_Requested::Data            0                       # Table walker requests started/completed, data/inst
system.cpu03.dtb.walker.walkRequestOrigin_Requested::Inst            0                       # Table walker requests started/completed, data/inst
system.cpu03.dtb.walker.walkRequestOrigin_Requested::total            0                       # Table walker requests started/completed, data/inst
system.cpu03.dtb.walker.walkRequestOrigin_Completed::Data            0                       # Table walker requests started/completed, data/inst
system.cpu03.dtb.walker.walkRequestOrigin_Completed::Inst            0                       # Table walker requests started/completed, data/inst
system.cpu03.dtb.walker.walkRequestOrigin_Completed::total            0                       # Table walker requests started/completed, data/inst
system.cpu03.dtb.walker.walkRequestOrigin::total            0                       # Table walker requests started/completed, data/inst
system.cpu03.dtb.walker.walks                       0                       # Table walker walks requested
system.cpu03.dtb.write_accesses                     0                       # DTB write accesses
system.cpu03.dtb.write_hits                         0                       # DTB write hits
system.cpu03.dtb.write_misses                       0                       # DTB write misses
system.cpu03.idle_fraction                          0                       # Percentage of idle cycles
system.cpu03.itb.accesses                           0                       # DTB accesses
system.cpu03.itb.align_faults                       0                       # Number of TLB faults due to alignment restrictions
system.cpu03.itb.domain_faults                      0                       # Number of TLB faults due to domain restrictions
system.cpu03.itb.flush_entries                      0                       # Number of entries that have been flushed from TLB
system.cpu03.itb.flush_tlb                          0                       # Number of times complete TLB was flushed
system.cpu03.itb.flush_tlb_asid                     0                       # Number of times TLB was flushed by ASID
system.cpu03.itb.flush_tlb_mva                      0                       # Number of times TLB was flushed by MVA
system.cpu03.itb.flush_tlb_mva_asid                 0                       # Number of times TLB was flushed by MVA & ASID
system.cpu03.itb.hits                               0                       # DTB hits
system.cpu03.itb.inst_accesses                      0                       # ITB inst accesses
system.cpu03.itb.inst_hits                          0                       # ITB inst hits
system.cpu03.itb.inst_misses                        0                       # ITB inst misses
system.cpu03.itb.misses                             0                       # DTB misses
system.cpu03.itb.perms_faults                       0                       # Number of TLB faults due to permissions restrictions
system.cpu03.itb.prefetch_faults                    0                       # Number of TLB faults due to prefetch
system.cpu03.itb.read_accesses                      0                       # DTB read accesses
system.cpu03.itb.read_hits                          0                       # DTB read hits
system.cpu03.itb.read_misses                        0                       # DTB read misses
system.cpu03.itb.stage2_mmu.stage2_tlb.accesses            0                       # DTB accesses
system.cpu03.itb.stage2_mmu.stage2_tlb.align_faults            0                       # Number of TLB faults due to alignment restrictions
[...]
system.l2.SCUpgradeFailReq_mshr_miss_latency::.switch_cpus00.data    745849837                       # number of SCUpgradeFailReq MSHR miss cycles
system.l2.SCUpgradeFailReq_mshr_miss_latency::total    745849837                       # number of SCUpgradeFailReq MSHR miss cycles
system.l2.SCUpgradeFailReq_mshr_miss_rate::.switch_cpus00.data            1                       # mshr miss rate for SCUpgradeFailReq accesses
system.l2.SCUpgradeFailReq_mshr_miss_rate::total            1                       # mshr miss rate for SCUpgradeFailReq accesses
system.l2.SCUpgradeFailReq_avg_mshr_miss_latency::.switch_cpus00.data 397786.579733                       # average SCUpgradeFailReq mshr miss latency
system.l2.SCUpgradeFailReq_avg_mshr_miss_latency::total 397786.579733                       # average SCUpgradeFailReq mshr miss latency
system.l2.ReadExReq_hits::.switch_cpus00.data          403                       # number of ReadExReq hits
system.l2.ReadExReq_hits::.switch_cpus17.data          108                       # number of ReadExReq hits
system.l2.ReadExReq_hits::.switch_cpus18.data          408                       # number of ReadExReq hits
system.l2.ReadExReq_hits::total                   919                       # number of ReadExReq hits
system.l2.ReadExReq_misses::.switch_cpus00.data       413649                       # number of ReadExReq misses
system.l2.ReadExReq_misses::total              413649                       # number of ReadExReq misses
system.l2.ReadExReq_miss_latency::.switch_cpus00.data  57654869186                       # number of ReadExReq miss cycles
system.l2.ReadExReq_miss_latency::total   57654869186                       # number of ReadExReq miss cycles
system.l2.ReadExReq_accesses::.switch_cpus00.data       414052                       # number of ReadExReq accesses(hits+misses)
system.l2.ReadExReq_accesses::.switch_cpus17.data          108                       # number of ReadExReq accesses(hits+misses)
system.l2.ReadExReq_accesses::.switch_cpus18.data          408                       # number of ReadExReq accesses(hits+misses)
system.l2.ReadExReq_accesses::total            414568                       # number of ReadExReq accesses(hits+misses)
system.l2.ReadExReq_miss_rate::.switch_cpus00.data     0.999027                       # miss rate for ReadExReq accesses
system.l2.ReadExReq_miss_rate::total         0.997783                       # miss rate for ReadExReq accesses
system.l2.ReadExReq_avg_miss_latency::.switch_cpus00.data 139381.140015                       # average ReadExReq miss latency
system.l2.ReadExReq_avg_miss_latency::total 139381.140015                       # average ReadExReq miss latency
system.l2.ReadExReq_mshr_misses::.switch_cpus00.data       413649                       # number of ReadExReq MSHR misses
system.l2.ReadExReq_mshr_misses::total         413649                       # number of ReadExReq MSHR misses
system.l2.ReadExReq_mshr_miss_latency::.switch_cpus00.data  54112823613                       # number of ReadExReq MSHR miss cycles
system.l2.ReadExReq_mshr_miss_latency::total  54112823613                       # number of ReadExReq MSHR miss cycles
system.l2.ReadExReq_mshr_miss_rate::.switch_cpus00.data     0.999027                       # mshr miss rate for ReadExReq accesses
system.l2.ReadExReq_mshr_miss_rate::total     0.997783                       # mshr miss rate for ReadExReq accesses
system.l2.ReadExReq_avg_mshr_miss_latency::.switch_cpus00.data 130818.214508                       # average ReadExReq mshr miss latency
system.l2.ReadExReq_avg_mshr_miss_latency::total 130818.214508                       # average ReadExReq mshr miss latency
system.l2.ReadCleanReq_hits::.switch_cpus00.inst            1                       # number of ReadCleanReq hits
system.l2.ReadCleanReq_hits::.switch_cpus18.inst            1                       # number of ReadCleanReq hits
system.l2.ReadCleanReq_hits::total                  2                       # number of ReadCleanReq hits
system.l2.ReadCleanReq_misses::.switch_cpus00.inst           37                       # number of ReadCleanReq misses
system.l2.ReadCleanReq_misses::.switch_cpus17.inst           33                       # number of ReadCleanReq misses
system.l2.ReadCleanReq_misses::.switch_cpus18.inst           30                       # number of ReadCleanReq misses
system.l2.ReadCleanReq_misses::total              100                       # number of ReadCleanReq misses
system.l2.ReadCleanReq_miss_latency::.switch_cpus00.inst      6329226                       # number of ReadCleanReq miss cycles
system.l2.ReadCleanReq_miss_latency::.switch_cpus17.inst      5169132                       # number of ReadCleanReq miss cycles
system.l2.ReadCleanReq_miss_latency::.switch_cpus18.inst      5806213                       # number of ReadCleanReq miss cycles
system.l2.ReadCleanReq_miss_latency::total     17304571                       # number of ReadCleanReq miss cycles
system.l2.ReadCleanReq_accesses::.switch_cpus00.inst           38                       # number of ReadCleanReq accesses(hits+misses)
system.l2.ReadCleanReq_accesses::.switch_cpus17.inst           33                       # number of ReadCleanReq accesses(hits+misses)
system.l2.ReadCleanReq_accesses::.switch_cpus18.inst           31                       # number of ReadCleanReq accesses(hits+misses)
system.l2.ReadCleanReq_accesses::total            102                       # number of ReadCleanReq accesses(hits+misses)
system.l2.ReadCleanReq_miss_rate::.switch_cpus00.inst     0.973684                       # miss rate for ReadCleanReq accesses
system.l2.ReadCleanReq_miss_rate::.switch_cpus17.inst            1                       # miss rate for ReadCleanReq accesses
system.l2.ReadCleanReq_miss_rate::.switch_cpus18.inst     0.967742                       # miss rate for ReadCleanReq accesses
system.l2.ReadCleanReq_miss_rate::total      0.980392                       # miss rate for ReadCleanReq accesses
system.l2.ReadCleanReq_avg_miss_latency::.switch_cpus00.inst 171060.162162                       # average ReadCleanReq miss latency
system.l2.ReadCleanReq_avg_miss_latency::.switch_cpus17.inst 156640.363636                       # average ReadCleanReq miss latency
system.l2.ReadCleanReq_avg_miss_latency::.switch_cpus18.inst 193540.433333                       # average ReadCleanReq miss latency
system.l2.ReadCleanReq_avg_miss_latency::total 173045.710000                       # average ReadCleanReq miss latency
system.l2.ReadCleanReq_mshr_misses::.switch_cpus00.inst           37                       # number of ReadCleanReq MSHR misses
system.l2.ReadCleanReq_mshr_misses::.switch_cpus17.inst           33                       # number of ReadCleanReq MSHR misses
system.l2.ReadCleanReq_mshr_misses::.switch_cpus18.inst           30                       # number of ReadCleanReq MSHR misses
system.l2.ReadCleanReq_mshr_misses::total          100                       # number of ReadCleanReq MSHR misses
system.l2.ReadCleanReq_mshr_miss_latency::.switch_cpus00.inst      6013712                       # number of ReadCleanReq MSHR miss cycles
system.l2.ReadCleanReq_mshr_miss_latency::.switch_cpus17.inst      4886977                       # number of ReadCleanReq MSHR miss cycles
system.l2.ReadCleanReq_mshr_miss_latency::.switch_cpus18.inst      5548904                       # number of ReadCleanReq MSHR miss cycles
system.l2.ReadCleanReq_mshr_miss_latency::total     16449593                       # number of ReadCleanReq MSHR miss cycles
system.l2.ReadCleanReq_mshr_miss_rate::.switch_cpus00.inst     0.973684                       # mshr miss rate for ReadCleanReq accesses
system.l2.ReadCleanReq_mshr_miss_rate::.switch_cpus17.inst            1                       # mshr miss rate for ReadCleanReq accesses
system.l2.ReadCleanReq_mshr_miss_rate::.switch_cpus18.inst     0.967742                       # mshr miss rate for ReadCleanReq accesses
system.l2.ReadCleanReq_mshr_miss_rate::total     0.980392                       # mshr miss rate for ReadCleanReq accesses
system.l2.ReadCleanReq_avg_mshr_miss_latency::.switch_cpus00.inst 162532.756757                       # average ReadCleanReq mshr miss latency
system.l2.ReadCleanReq_avg_mshr_miss_latency::.switch_cpus17.inst 148090.212121                       # average ReadCleanReq mshr miss latency
system.l2.ReadCleanReq_avg_mshr_miss_latency::.switch_cpus18.inst 184963.466667                       # average ReadCleanReq mshr miss latency
system.l2.ReadCleanReq_avg_mshr_miss_latency::total 164495.930000                       # average ReadCleanReq mshr miss latency
system.l2.ReadSharedReq_hits::.switch_cpus00.data       338121                       # number of ReadSharedReq hits
system.l2.ReadSharedReq_hits::.switch_cpus17.data      3410337                       # number of ReadSharedReq hits
system.l2.ReadSharedReq_hits::.switch_cpus18.data      2086630                       # number of ReadSharedReq hits
system.l2.ReadSharedReq_hits::total           5835088                       # number of ReadSharedReq hits
system.l2.ReadSharedReq_misses::.switch_cpus00.data       500345                       # number of ReadSharedReq misses
system.l2.ReadSharedReq_misses::.switch_cpus17.data           21                       # number of ReadSharedReq misses
system.l2.ReadSharedReq_misses::.switch_cpus18.data            9                       # number of ReadSharedReq misses
system.l2.ReadSharedReq_misses::total          500375                       # number of ReadSharedReq misses
system.l2.ReadSharedReq_miss_latency::.switch_cpus00.data  19339619600                       # number of ReadSharedReq miss cycles
system.l2.ReadSharedReq_miss_latency::.switch_cpus17.data      3731733                       # number of ReadSharedReq miss cycles
system.l2.ReadSharedReq_miss_latency::.switch_cpus18.data      1679676                       # number of ReadSharedReq miss cycles
system.l2.ReadSharedReq_miss_latency::total  19345031009                       # number of ReadSharedReq miss cycles
system.l2.ReadSharedReq_accesses::.switch_cpus00.data       838466                       # number of ReadSharedReq accesses(hits+misses)
system.l2.ReadSharedReq_accesses::.switch_cpus17.data      3410358                       # number of ReadSharedReq accesses(hits+misses)
system.l2.ReadSharedReq_accesses::.switch_cpus18.data      2086639                       # number of ReadSharedReq accesses(hits+misses)
system.l2.ReadSharedReq_accesses::total       6335463                       # number of ReadSharedReq accesses(hits+misses)
system.l2.ReadSharedReq_miss_rate::.switch_cpus00.data     0.596739                       # miss rate for ReadSharedReq accesses
system.l2.ReadSharedReq_miss_rate::.switch_cpus17.data     0.000006                       # miss rate for ReadSharedReq accesses
system.l2.ReadSharedReq_miss_rate::.switch_cpus18.data     0.000004                       # miss rate for ReadSharedReq accesses
system.l2.ReadSharedReq_miss_rate::total     0.078980                       # miss rate for ReadSharedReq accesses
system.l2.ReadSharedReq_avg_miss_latency::.switch_cpus00.data 38652.568927                       # average ReadSharedReq miss latency
system.l2.ReadSharedReq_avg_miss_latency::.switch_cpus17.data 177701.571429                       # average ReadSharedReq miss latency
system.l2.ReadSharedReq_avg_miss_latency::.switch_cpus18.data 186630.666667                       # average ReadSharedReq miss latency
system.l2.ReadSharedReq_avg_miss_latency::total 38661.066218                       # average ReadSharedReq miss latency
system.l2.ReadSharedReq_mshr_misses::.switch_cpus00.data       500345                       # number of ReadSharedReq MSHR misses
system.l2.ReadSharedReq_mshr_misses::.switch_cpus17.data           21                       # number of ReadSharedReq MSHR misses
system.l2.ReadSharedReq_mshr_misses::.switch_cpus18.data            9                       # number of ReadSharedReq MSHR misses
system.l2.ReadSharedReq_mshr_misses::total       500375                       # number of ReadSharedReq MSHR misses
system.l2.ReadSharedReq_mshr_miss_latency::.switch_cpus00.data  15062287957                       # number of ReadSharedReq MSHR miss cycles
system.l2.ReadSharedReq_mshr_miss_latency::.switch_cpus17.data      3552629                       # number of ReadSharedReq MSHR miss cycles
system.l2.ReadSharedReq_mshr_miss_latency::.switch_cpus18.data      1602183                       # number of ReadSharedReq MSHR miss cycles
system.l2.ReadSharedReq_mshr_miss_latency::total  15067442769                       # number of ReadSharedReq MSHR miss cycles
system.l2.ReadSharedReq_mshr_miss_rate::.switch_cpus00.data     0.596739                       # mshr miss rate for ReadSharedReq accesses
system.l2.ReadSharedReq_mshr_miss_rate::.switch_cpus17.data     0.000006                       # mshr miss rate for ReadSharedReq accesses
system.l2.ReadSharedReq_mshr_miss_rate::.switch_cpus18.data     0.000004                       # mshr miss rate for ReadSharedReq accesses
system.l2.ReadSharedReq_mshr_miss_rate::total     0.078980                       # mshr miss rate for ReadSharedReq accesses
system.l2.ReadSharedReq_avg_mshr_miss_latency::.switch_cpus00.data 30103.804289                       # average ReadSharedReq mshr miss latency
system.l2.ReadSharedReq_avg_mshr_miss_latency::.switch_cpus17.data 169172.809524                       # average ReadSharedReq mshr miss latency
system.l2.ReadSharedReq_avg_mshr_miss_latency::.switch_cpus18.data 178020.333333                       # average ReadSharedReq mshr miss latency
system.l2.ReadSharedReq_avg_mshr_miss_latency::total 30112.301312                       # average ReadSharedReq mshr miss latency
system.l2.InvalidateReq_misses::.switch_cpus00.data          143                       # number of InvalidateReq misses
system.l2.InvalidateReq_misses::total             143                       # number of InvalidateReq misses
system.l2.InvalidateReq_accesses::.switch_cpus00.data          143                       # number of InvalidateReq accesses(hits+misses)
system.l2.InvalidateReq_accesses::total           143                       # number of InvalidateReq accesses(hits+misses)
system.l2.InvalidateReq_miss_rate::.switch_cpus00.data            1                       # miss rate for InvalidateReq accesses
system.l2.InvalidateReq_miss_rate::total            1                       # miss rate for InvalidateReq accesses
system.l2.InvalidateReq_mshr_misses::.switch_cpus00.data          143                       # number of InvalidateReq MSHR misses
system.l2.InvalidateReq_mshr_misses::total          143                       # number of InvalidateReq MSHR misses
system.l2.InvalidateReq_mshr_miss_latency::.switch_cpus00.data      2722249                       # number of InvalidateReq MSHR miss cycles
system.l2.InvalidateReq_mshr_miss_latency::total      2722249                       # number of InvalidateReq MSHR miss cycles
system.l2.InvalidateReq_mshr_miss_rate::.switch_cpus00.data            1                       # mshr miss rate for InvalidateReq accesses
system.l2.InvalidateReq_mshr_miss_rate::total            1                       # mshr miss rate for InvalidateReq accesses
system.l2.InvalidateReq_avg_mshr_miss_latency::.switch_cpus00.data 19036.706294                       # average InvalidateReq mshr miss latency
system.l2.InvalidateReq_avg_mshr_miss_latency::total 19036.706294                       # average InvalidateReq mshr miss latency
system.l2.tags.pwrStateResidencyTicks::UNDEFINED 1297384004208                       # Cumulative time (in ticks) in various power states
system.l2.tags.tagsinuse                 32761.622418                       # Cycle average of tags in use
system.l2.tags.total_refs                    29152817                       # Total number of references to valid blocks.
system.l2.tags.sampled_refs                    969317                       # Sample count of references to valid blocks.
system.l2.tags.avg_refs                     30.075627                       # Average number of references to valid blocks.
system.l2.tags.warmup_cycle                         0                       # Cycle when the warmup percentage was hit.
system.l2.tags.occ_blocks::.writebacks      23.560592                       # Average occupied blocks per requestor
system.l2.tags.occ_blocks::.cpu00.data    1343.271431                       # Average occupied blocks per requestor
system.l2.tags.occ_blocks::.cpu17.data    1462.006267                       # Average occupied blocks per requestor
system.l2.tags.occ_blocks::.cpu18.data     971.029672                       # Average occupied blocks per requestor
system.l2.tags.occ_blocks::.switch_cpus00.inst     2.804298                       # Average occupied blocks per requestor
system.l2.tags.occ_blocks::.switch_cpus00.data 28950.006266                       # Average occupied blocks per requestor
system.l2.tags.occ_blocks::.switch_cpus17.inst     2.419860                       # Average occupied blocks per requestor
system.l2.tags.occ_blocks::.switch_cpus17.data     2.587147                       # Average occupied blocks per requestor
system.l2.tags.occ_blocks::.switch_cpus18.inst     2.106798                       # Average occupied blocks per requestor
system.l2.tags.occ_blocks::.switch_cpus18.data     1.830087                       # Average occupied blocks per requestor
system.l2.tags.occ_percent::.writebacks      0.000719                       # Average percentage of cache occupancy
system.l2.tags.occ_percent::.cpu00.data      0.040993                       # Average percentage of cache occupancy
system.l2.tags.occ_percent::.cpu17.data      0.044617                       # Average percentage of cache occupancy
system.l2.tags.occ_percent::.cpu18.data      0.029633                       # Average percentage of cache occupancy
system.l2.tags.occ_percent::.switch_cpus00.inst     0.000086                       # Average percentage of cache occupancy
system.l2.tags.occ_percent::.switch_cpus00.data     0.883484                       # Average percentage of cache occupancy
system.l2.tags.occ_percent::.switch_cpus17.inst     0.000074                       # Average percentage of cache occupancy
system.l2.tags.occ_percent::.switch_cpus17.data     0.000079                       # Average percentage of cache occupancy
system.l2.tags.occ_percent::.switch_cpus18.inst     0.000064                       # Average percentage of cache occupancy
system.l2.tags.occ_percent::.switch_cpus18.data     0.000056                       # Average percentage of cache occupancy
system.l2.tags.occ_percent::total            0.999805                       # Average percentage of cache occupancy
system.l2.tags.occ_task_id_blocks::1024         32762                       # Occupied blocks per task id
system.l2.tags.age_task_id_blocks_1024::0           18                       # Occupied blocks per task id
system.l2.tags.age_task_id_blocks_1024::1          143                       # Occupied blocks per task id
system.l2.tags.age_task_id_blocks_1024::2         1165                       # Occupied blocks per task id
system.l2.tags.age_task_id_blocks_1024::3        10500                       # Occupied blocks per task id
system.l2.tags.age_task_id_blocks_1024::4        20936                       # Occupied blocks per task id
system.l2.tags.occ_task_id_percent::1024     0.999817                       # Percentage of cache occupancy per task id
system.l2.tags.tag_accesses                 220743222                       # Number of tag accesses
system.l2.tags.data_accesses                220743222                       # Number of data accesses
system.cpu_voltage_domain.voltage                   1                       # Voltage in Volts

---------- End Simulation Statistics   ----------
