
---------- Begin Simulation Statistics ----------
sim_seconds                                  0.111551                       # Number of seconds simulated
sim_ticks                                111551455245                       # Number of ticks simulated
final_tick                               639326831790                       # Number of ticks from beginning of simulation (restored from checkpoints and never reset)
sim_freq                                 1000000000000                       # Frequency of simulated ticks
host_inst_rate                                 309022                       # Simulator instruction rate (inst/s)
host_op_rate                                   389314                       # Simulator op (including micro ops) rate (op/s)
host_tick_rate                                1960468                       # Simulator tick rate (ticks/s)
host_mem_usage                               67749644                       # Number of bytes of host memory used
host_seconds                                 56900.42                       # Real time elapsed on the host
sim_insts                                 17583462035                       # Number of instructions simulated
sim_ops                                   22152123362                       # Number of ops (including micro ops) simulated
system.physmem.bytes_read::switch_cpus00.inst         5120                       # Number of bytes read from this memory
system.physmem.bytes_read::switch_cpus00.data      1533696                       # Number of bytes read from this memory
system.physmem.bytes_read::switch_cpus01.inst         4864                       # Number of bytes read from this memory
system.physmem.bytes_read::switch_cpus01.data      1104256                       # Number of bytes read from this memory
system.physmem.bytes_read::switch_cpus02.inst         5504                       # Number of bytes read from this memory
system.physmem.bytes_read::switch_cpus02.data      4430720                       # Number of bytes read from this memory
system.physmem.bytes_read::switch_cpus03.inst         5632                       # Number of bytes read from this memory
system.physmem.bytes_read::switch_cpus03.data      1534720                       # Number of bytes read from this memory
system.physmem.bytes_read::switch_cpus04.inst         4352                       # Number of bytes read from this memory
system.physmem.bytes_read::switch_cpus04.data      2321024                       # Number of bytes read from this memory
system.physmem.bytes_read::switch_cpus05.inst         4992                       # Number of bytes read from this memory
system.physmem.bytes_read::switch_cpus05.data      2383232                       # Number of bytes read from this memory
system.physmem.bytes_read::switch_cpus06.inst         4992                       # Number of bytes read from this memory
system.physmem.bytes_read::switch_cpus06.data      4421760                       # Number of bytes read from this memory
system.physmem.bytes_read::switch_cpus07.inst         4864                       # Number of bytes read from this memory
system.physmem.bytes_read::switch_cpus07.data      1105664                       # Number of bytes read from this memory
system.physmem.bytes_read::switch_cpus08.inst         5120                       # Number of bytes read from this memory
system.physmem.bytes_read::switch_cpus08.data      3736320                       # Number of bytes read from this memory
system.physmem.bytes_read::switch_cpus09.inst         4992                       # Number of bytes read from this memory
system.physmem.bytes_read::switch_cpus09.data      3727360                       # Number of bytes read from this memory
system.physmem.bytes_read::switch_cpus10.inst         4864                       # Number of bytes read from this memory
system.physmem.bytes_read::switch_cpus10.data      1106560                       # Number of bytes read from this memory
system.physmem.bytes_read::switch_cpus11.inst         4736                       # Number of bytes read from this memory
system.physmem.bytes_read::switch_cpus11.data      2389504                       # Number of bytes read from this memory
system.physmem.bytes_read::switch_cpus12.inst         5248                       # Number of bytes read from this memory
system.physmem.bytes_read::switch_cpus12.data      3726848                       # Number of bytes read from this memory
system.physmem.bytes_read::switch_cpus13.inst         4992                       # Number of bytes read from this memory
system.physmem.bytes_read::switch_cpus13.data      1105536                       # Number of bytes read from this memory
system.physmem.bytes_read::switch_cpus14.inst         5120                       # Number of bytes read from this memory
system.physmem.bytes_read::switch_cpus14.data      1533696                       # Number of bytes read from this memory
system.physmem.bytes_read::switch_cpus15.inst         4992                       # Number of bytes read from this memory
system.physmem.bytes_read::switch_cpus15.data      3735552                       # Number of bytes read from this memory
system.physmem.bytes_read::total             39976832                       # Number of bytes read from this memory
system.physmem.bytes_inst_read::switch_cpus00.inst         5120                       # Number of instructions bytes read from this memory
system.physmem.bytes_inst_read::switch_cpus01.inst         4864                       # Number of instructions bytes read from this memory
system.physmem.bytes_inst_read::switch_cpus02.inst         5504                       # Number of instructions bytes read from this memory
system.physmem.bytes_inst_read::switch_cpus03.inst         5632                       # Number of instructions bytes read from this memory
system.physmem.bytes_inst_read::switch_cpus04.inst         4352                       # Number of instructions bytes read from this memory
system.physmem.bytes_inst_read::switch_cpus05.inst         4992                       # Number of instructions bytes read from this memory
system.physmem.bytes_inst_read::switch_cpus06.inst         4992                       # Number of instructions bytes read from this memory
system.physmem.bytes_inst_read::switch_cpus07.inst         4864                       # Number of instructions bytes read from this memory
system.physmem.bytes_inst_read::switch_cpus08.inst         5120                       # Number of instructions bytes read from this memory
system.physmem.bytes_inst_read::switch_cpus09.inst         4992                       # Number of instructions bytes read from this memory
system.physmem.bytes_inst_read::switch_cpus10.inst         4864                       # Number of instructions bytes read from this memory
system.physmem.bytes_inst_read::switch_cpus11.inst         4736                       # Number of instructions bytes read from this memory
system.physmem.bytes_inst_read::switch_cpus12.inst         5248                       # Number of instructions bytes read from this memory
system.physmem.bytes_inst_read::switch_cpus13.inst         4992                       # Number of instructions bytes read from this memory
system.physmem.bytes_inst_read::switch_cpus14.inst         5120                       # Number of instructions bytes read from this memory
system.physmem.bytes_inst_read::switch_cpus15.inst         4992                       # Number of instructions bytes read from this memory
system.physmem.bytes_inst_read::total           80384                       # Number of instructions bytes read from this memory
system.physmem.bytes_written::writebacks     10867200                       # Number of bytes written to this memory
system.physmem.bytes_written::total          10867200                       # Number of bytes written to this memory
system.physmem.num_reads::switch_cpus00.inst           40                       # Number of read requests responded to by this memory
system.physmem.num_reads::switch_cpus00.data        11982                       # Number of read requests responded to by this memory
system.physmem.num_reads::switch_cpus01.inst           38                       # Number of read requests responded to by this memory
system.physmem.num_reads::switch_cpus01.data         8627                       # Number of read requests responded to by this memory
system.physmem.num_reads::switch_cpus02.inst           43                       # Number of read requests responded to by this memory
system.physmem.num_reads::switch_cpus02.data        34615                       # Number of read requests responded to by this memory
system.physmem.num_reads::switch_cpus03.inst           44                       # Number of read requests responded to by this memory
system.physmem.num_reads::switch_cpus03.data        11990                       # Number of read requests responded to by this memory
system.physmem.num_reads::switch_cpus04.inst           34                       # Number of read requests responded to by this memory
system.physmem.num_reads::switch_cpus04.data        18133                       # Number of read requests responded to by this memory
system.physmem.num_reads::switch_cpus05.inst           39                       # Number of read requests responded to by this memory
system.physmem.num_reads::switch_cpus05.data        18619                       # Number of read requests responded to by this memory
system.physmem.num_reads::switch_cpus06.inst           39                       # Number of read requests responded to by this memory
system.physmem.num_reads::switch_cpus06.data        34545                       # Number of read requests responded to by this memory
system.physmem.num_reads::switch_cpus07.inst           38                       # Number of read requests responded to by this memory
system.physmem.num_reads::switch_cpus07.data         8638                       # Number of read requests responded to by this memory
system.physmem.num_reads::switch_cpus08.inst           40                       # Number of read requests responded to by this memory
system.physmem.num_reads::switch_cpus08.data        29190                       # Number of read requests responded to by this memory
system.physmem.num_reads::switch_cpus09.inst           39                       # Number of read requests responded to by this memory
system.physmem.num_reads::switch_cpus09.data        29120                       # Number of read requests responded to by this memory
system.physmem.num_reads::switch_cpus10.inst           38                       # Number of read requests responded to by this memory
system.physmem.num_reads::switch_cpus10.data         8645                       # Number of read requests responded to by this memory
system.physmem.num_reads::switch_cpus11.inst           37                       # Number of read requests responded to by this memory
system.physmem.num_reads::switch_cpus11.data        18668                       # Number of read requests responded to by this memory
system.physmem.num_reads::switch_cpus12.inst           41                       # Number of read requests responded to by this memory
system.physmem.num_reads::switch_cpus12.data        29116                       # Number of read requests responded to by this memory
system.physmem.num_reads::switch_cpus13.inst           39                       # Number of read requests responded to by this memory
system.physmem.num_reads::switch_cpus13.data         8637                       # Number of read requests responded to by this memory
system.physmem.num_reads::switch_cpus14.inst           40                       # Number of read requests responded to by this memory
system.physmem.num_reads::switch_cpus14.data        11982                       # Number of read requests responded to by this memory
system.physmem.num_reads::switch_cpus15.inst           39                       # Number of read requests responded to by this memory
system.physmem.num_reads::switch_cpus15.data        29184                       # Number of read requests responded to by this memory
system.physmem.num_reads::total                312319                       # Number of read requests responded to by this memory
system.physmem.num_writes::writebacks           84900                       # Number of write requests responded to by this memory
system.physmem.num_writes::functional               0                       # Number of write requests responded to by this memory
system.physmem.num_writes::interrupt                0                       # Number of write requests responded to by this memory
system.physmem.num_writes::switch_cpus00.dtb.walker            0                       # Number of write requests responded to by this memory
system.physmem.num_writes::switch_cpus00.itb.walker            0                       # Number of write requests responded to by this memory
system.physmem.num_writes::switch_cpus00.inst            0                       # Number of write requests responded to by this memory
system.physmem.num_writes::switch_cpus00.data            0                       # Number of write requests responded to by this memory
system.physmem.num_writes::switch_cpus01.dtb.walker            0                       # Number of write requests responded to by this memory
system.physmem.num_writes::switch_cpus01.itb.walker            0                       # Number of write requests responded to by this memory
system.physmem.num_writes::switch_cpus01.inst            0                       # Number of write requests responded to by this memory
system.physmem.num_writes::switch_cpus01.data            0                       # Number of write requests responded to by this memory
system.physmem.num_writes::switch_cpus02.dtb.walker            0                       # Number of write requests responded to by this memory
system.physmem.num_writes::switch_cpus02.itb.walker            0                       # Number of write requests responded to by this memory
system.physmem.num_writes::switch_cpus02.inst            0                       # Number of write requests responded to by this memory
system.physmem.num_writes::switch_cpus02.data            0                       # Number of write requests responded to by this memory
system.physmem.num_writes::switch_cpus03.dtb.walker            0                       # Number of write requests responded to by this memory
system.physmem.num_writes::switch_cpus03.itb.walker            0                       # Number of write requests responded to by this memory
system.physmem.num_writes::switch_cpus03.inst            0                       # Number of write requests responded to by this memory
system.physmem.num_writes::switch_cpus03.data            0                       # Number of write requests responded to by this memory
system.physmem.num_writes::switch_cpus04.dtb.walker            0                       # Number of write requests responded to by this memory
system.physmem.num_writes::switch_cpus04.itb.walker            0                       # Number of write requests responded to by this memory
system.physmem.num_writes::switch_cpus04.inst            0                       # Number of write requests responded to by this memory
system.physmem.num_writes::switch_cpus04.data            0                       # Number of write requests responded to by this memory
system.physmem.num_writes::switch_cpus05.dtb.walker            0                       # Number of write requests responded to by this memory
system.physmem.num_writes::switch_cpus05.itb.walker            0                       # Number of write requests responded to by this memory
system.physmem.num_writes::switch_cpus05.inst            0                       # Number of write requests responded to by this memory
system.physmem.num_writes::switch_cpus05.data            0                       # Number of write requests responded to by this memory
system.physmem.num_writes::switch_cpus06.dtb.walker            0                       # Number of write requests responded to by this memory
system.physmem.num_writes::switch_cpus06.itb.walker            0                       # Number of write requests responded to by this memory
system.physmem.num_writes::switch_cpus06.inst            0                       # Number of write requests responded to by this memory
system.physmem.num_writes::switch_cpus06.data            0                       # Number of write requests responded to by this memory
system.physmem.num_writes::switch_cpus07.dtb.walker            0                       # Number of write requests responded to by this memory
system.physmem.num_writes::switch_cpus07.itb.walker            0                       # Number of write requests responded to by this memory
system.physmem.num_writes::switch_cpus07.inst            0                       # Number of write requests responded to by this memory
system.physmem.num_writes::switch_cpus07.data            0                       # Number of write requests responded to by this memory
system.physmem.num_writes::switch_cpus08.dtb.walker            0                       # Number of write requests responded to by this memory
system.physmem.num_writes::switch_cpus08.itb.walker            0                       # Number of write requests responded to by this memory
system.physmem.num_writes::switch_cpus08.inst            0                       # Number of write requests responded to by this memory
system.physmem.num_writes::switch_cpus08.data            0                       # Number of write requests responded to by this memory
system.physmem.num_writes::switch_cpus09.dtb.walker            0                       # Number of write requests responded to by this memory
system.physmem.num_writes::switch_cpus09.itb.walker            0                       # Number of write requests responded to by this memory
system.physmem.num_writes::switch_cpus09.inst            0                       # Number of write requests responded to by this memory
system.physmem.num_writes::switch_cpus09.data            0                       # Number of write requests responded to by this memory
system.physmem.num_writes::switch_cpus10.dtb.walker            0                       # Number of write requests responded to by this memory
system.physmem.num_writes::switch_cpus10.itb.walker            0                       # Number of write requests responded to by this memory
system.physmem.num_writes::switch_cpus10.inst            0                       # Number of write requests responded to by this memory
system.physmem.num_writes::switch_cpus10.data            0                       # Number of write requests responded to by this memory
system.physmem.num_writes::switch_cpus11.dtb.walker            0                       # Number of write requests responded to by this memory
system.physmem.num_writes::switch_cpus11.itb.walker            0                       # Number of write requests responded to by this memory
system.physmem.num_writes::switch_cpus11.inst            0                       # Number of write requests responded to by this memory
system.physmem.num_writes::switch_cpus11.data            0                       # Number of write requests responded to by this memory
system.physmem.num_writes::switch_cpus12.dtb.walker            0                       # Number of write requests responded to by this memory
system.physmem.num_writes::switch_cpus12.itb.walker            0                       # Number of write requests responded to by this memory
system.physmem.num_writes::switch_cpus12.inst            0                       # Number of write requests responded to by this memory
system.physmem.num_writes::switch_cpus12.data            0                       # Number of write requests responded to by this memory
system.physmem.num_writes::switch_cpus13.dtb.walker            0                       # Number of write requests responded to by this memory
system.physmem.num_writes::switch_cpus13.itb.walker            0                       # Number of write requests responded to by this memory
system.physmem.num_writes::switch_cpus13.inst            0                       # Number of write requests responded to by this memory
system.physmem.num_writes::switch_cpus13.data            0                       # Number of write requests responded to by this memory
system.physmem.num_writes::switch_cpus14.dtb.walker            0                       # Number of write requests responded to by this memory
system.physmem.num_writes::switch_cpus14.itb.walker            0                       # Number of write requests responded to by this memory
system.physmem.num_writes::switch_cpus14.inst            0                       # Number of write requests responded to by this memory
system.physmem.num_writes::switch_cpus14.data            0                       # Number of write requests responded to by this memory
system.physmem.num_writes::switch_cpus15.dtb.walker            0                       # Number of write requests responded to by this memory
system.physmem.num_writes::switch_cpus15.itb.walker            0                       # Number of write requests responded to by this memory
system.physmem.num_writes::switch_cpus15.inst            0                       # Number of write requests responded to by this memory
system.physmem.num_writes::switch_cpus15.data            0                       # Number of write requests responded to by this memory
system.physmem.num_writes::cpu00.dtb.walker            0                       # Number of write requests responded to by this memory
system.physmem.num_writes::cpu00.itb.walker            0                       # Number of write requests responded to by this memory
system.physmem.num_writes::cpu00.inst               0                       # Number of write requests responded to by this memory
system.physmem.num_writes::cpu00.data               0                       # Number of write requests responded to by this memory
system.physmem.num_writes::cpu01.dtb.walker            0                       # Number of write requests responded to by this memory
system.physmem.num_writes::cpu01.itb.walker            0                       # Number of write requests responded to by this memory
system.physmem.num_writes::cpu01.inst               0                       # Number of write requests responded to by this memory
system.physmem.num_writes::cpu01.data               0                       # Number of write requests responded to by this memory
system.physmem.num_writes::cpu02.dtb.walker            0                       # Number of write requests responded to by this memory
system.physmem.num_writes::cpu02.itb.walker            0                       # Number of write requests responded to by this memory
system.physmem.num_writes::cpu02.inst               0                       # Number of write requests responded to by this memory
system.physmem.num_writes::cpu02.data               0                       # Number of write requests responded to by this memory
system.physmem.num_writes::cpu03.dtb.walker            0                       # Number of write requests responded to by this memory
system.physmem.num_writes::cpu03.itb.walker            0                       # Number of write requests responded to by this memory
system.physmem.num_writes::cpu03.inst               0                       # Number of write requests responded to by this memory
system.physmem.num_writes::cpu03.data               0                       # Number of write requests responded to by this memory
system.physmem.num_writes::cpu04.dtb.walker            0                       # Number of write requests responded to by this memory
system.physmem.num_writes::cpu04.itb.walker            0                       # Number of write requests responded to by this memory
system.physmem.num_writes::cpu04.inst               0                       # Number of write requests responded to by this memory
system.physmem.num_writes::cpu04.data               0                       # Number of write requests responded to by this memory
system.physmem.num_writes::cpu05.dtb.walker            0                       # Number of write requests responded to by this memory
system.physmem.num_writes::cpu05.itb.walker            0                       # Number of write requests responded to by this memory
system.physmem.num_writes::cpu05.inst               0                       # Number of write requests responded to by this memory
system.physmem.num_writes::cpu05.data               0                       # Number of write requests responded to by this memory
system.physmem.num_writes::cpu06.dtb.walker            0                       # Number of write requests responded to by this memory
system.physmem.num_writes::cpu06.itb.walker            0                       # Number of write requests responded to by this memory
system.physmem.num_writes::cpu06.inst               0                       # Number of write requests responded to by this memory
system.physmem.num_writes::cpu06.data               0                       # Number of write requests responded to by this memory
system.physmem.num_writes::cpu07.dtb.walker            0                       # Number of write requests responded to by this memory
system.physmem.num_writes::cpu07.itb.walker            0                       # Number of write requests responded to by this memory
system.physmem.num_writes::cpu07.inst               0                       # Number of write requests responded to by this memory
system.physmem.num_writes::cpu07.data               0                       # Number of write requests responded to by this memory
system.physmem.num_writes::cpu08.dtb.walker            0                       # Number of write requests responded to by this memory
system.physmem.num_writes::cpu08.itb.walker            0                       # Number of write requests responded to by this memory
system.physmem.num_writes::cpu08.inst               0                       # Number of write requests responded to by this memory
system.physmem.num_writes::cpu08.data               0                       # Number of write requests responded to by this memory
system.physmem.num_writes::cpu09.dtb.walker            0                       # Number of write requests responded to by this memory
system.physmem.num_writes::cpu09.itb.walker            0                       # Number of write requests responded to by this memory
system.physmem.num_writes::cpu09.inst               0                       # Number of write requests responded to by this memory
system.physmem.num_writes::cpu09.data               0                       # Number of write requests responded to by this memory
system.physmem.num_writes::cpu10.dtb.walker            0                       # Number of write requests responded to by this memory
system.physmem.num_writes::cpu10.itb.walker            0                       # Number of write requests responded to by this memory
system.physmem.num_writes::cpu10.inst               0                       # Number of write requests responded to by this memory
system.physmem.num_writes::cpu10.data               0                       # Number of write requests responded to by this memory
system.physmem.num_writes::cpu11.dtb.walker            0                       # Number of write requests responded to by this memory
system.physmem.num_writes::cpu11.itb.walker            0                       # Number of write requests responded to by this memory
system.physmem.num_writes::cpu11.inst               0                       # Number of write requests responded to by this memory
system.physmem.num_writes::cpu11.data               0                       # Number of write requests responded to by this memory
system.physmem.num_writes::cpu12.dtb.walker            0                       # Number of write requests responded to by this memory
system.physmem.num_writes::cpu12.itb.walker            0                       # Number of write requests responded to by this memory
system.physmem.num_writes::cpu12.inst               0                       # Number of write requests responded to by this memory
system.physmem.num_writes::cpu12.data               0                       # Number of write requests responded to by this memory
system.physmem.num_writes::cpu13.dtb.walker            0                       # Number of write requests responded to by this memory
system.physmem.num_writes::cpu13.itb.walker            0                       # Number of write requests responded to by this memory
system.physmem.num_writes::cpu13.inst               0                       # Number of write requests responded to by this memory
system.physmem.num_writes::cpu13.data               0                       # Number of write requests responded to by this memory
system.physmem.num_writes::cpu14.dtb.walker            0                       # Number of write requests responded to by this memory
system.physmem.num_writes::cpu14.itb.walker            0                       # Number of write requests responded to by this memory
system.physmem.num_writes::cpu14.inst               0                       # Number of write requests responded to by this memory
system.physmem.num_writes::cpu14.data               0                       # Number of write requests responded to by this memory
system.physmem.num_writes::cpu15.dtb.walker            0                       # Number of write requests responded to by this memory
system.physmem.num_writes::cpu15.itb.walker            0                       # Number of write requests responded to by this memory
system.physmem.num_writes::cpu15.inst               0                       # Number of write requests responded to by this memory
system.physmem.num_writes::cpu15.data               0                       # Number of write requests responded to by this memory
system.physmem.num_writes::total                84900                       # Number of write requests responded to by this memory
system.physmem.bw_read::switch_cpus00.inst        45898                       # Total read bandwidth from this memory (bytes/s)
system.physmem.bw_read::switch_cpus00.data     13748776                       # Total read bandwidth from this memory (bytes/s)
system.physmem.bw_read::switch_cpus01.inst        43603                       # Total read bandwidth from this memory (bytes/s)
system.physmem.bw_read::switch_cpus01.data      9899073                       # Total read bandwidth from this memory (bytes/s)
system.physmem.bw_read::switch_cpus02.inst        49340                       # Total read bandwidth from this memory (bytes/s)
system.physmem.bw_read::switch_cpus02.data     39719069                       # Total read bandwidth from this memory (bytes/s)
system.physmem.bw_read::switch_cpus03.inst        50488                       # Total read bandwidth from this memory (bytes/s)
system.physmem.bw_read::switch_cpus03.data     13757956                       # Total read bandwidth from this memory (bytes/s)
system.physmem.bw_read::switch_cpus04.inst        39013                       # Total read bandwidth from this memory (bytes/s)
system.physmem.bw_read::switch_cpus04.data     20806757                       # Total read bandwidth from this memory (bytes/s)
system.physmem.bw_read::switch_cpus05.inst        44751                       # Total read bandwidth from this memory (bytes/s)
system.physmem.bw_read::switch_cpus05.data     21364419                       # Total read bandwidth from this memory (bytes/s)
system.physmem.bw_read::switch_cpus06.inst        44751                       # Total read bandwidth from this memory (bytes/s)
system.physmem.bw_read::switch_cpus06.data     39638748                       # Total read bandwidth from this memory (bytes/s)
system.physmem.bw_read::switch_cpus07.inst        43603                       # Total read bandwidth from this memory (bytes/s)
system.physmem.bw_read::switch_cpus07.data      9911695                       # Total read bandwidth from this memory (bytes/s)
system.physmem.bw_read::switch_cpus08.inst        45898                       # Total read bandwidth from this memory (bytes/s)
system.physmem.bw_read::switch_cpus08.data     33494139                       # Total read bandwidth from this memory (bytes/s)
system.physmem.bw_read::switch_cpus09.inst        44751                       # Total read bandwidth from this memory (bytes/s)
system.physmem.bw_read::switch_cpus09.data     33413818                       # Total read bandwidth from this memory (bytes/s)
system.physmem.bw_read::switch_cpus10.inst        43603                       # Total read bandwidth from this memory (bytes/s)
system.physmem.bw_read::switch_cpus10.data      9919727                       # Total read bandwidth from this memory (bytes/s)
system.physmem.bw_read::switch_cpus11.inst        42456                       # Total read bandwidth from this memory (bytes/s)
system.physmem.bw_read::switch_cpus11.data     21420644                       # Total read bandwidth from this memory (bytes/s)
system.physmem.bw_read::switch_cpus12.inst        47046                       # Total read bandwidth from this memory (bytes/s)
system.physmem.bw_read::switch_cpus12.data     33409228                       # Total read bandwidth from this memory (bytes/s)
system.physmem.bw_read::switch_cpus13.inst        44751                       # Total read bandwidth from this memory (bytes/s)
system.physmem.bw_read::switch_cpus13.data      9910548                       # Total read bandwidth from this memory (bytes/s)
system.physmem.bw_read::switch_cpus14.inst        45898                       # Total read bandwidth from this memory (bytes/s)
system.physmem.bw_read::switch_cpus14.data     13748776                       # Total read bandwidth from this memory (bytes/s)
system.physmem.bw_read::switch_cpus15.inst        44751                       # Total read bandwidth from this memory (bytes/s)
system.physmem.bw_read::switch_cpus15.data     33487255                       # Total read bandwidth from this memory (bytes/s)
system.physmem.bw_read::total               358371228                       # Total read bandwidth from this memory (bytes/s)
system.physmem.bw_inst_read::switch_cpus00.inst        45898                       # Instruction read bandwidth from this memory (bytes/s)
system.physmem.bw_inst_read::switch_cpus01.inst        43603                       # Instruction read bandwidth from this memory (bytes/s)
system.physmem.bw_inst_read::switch_cpus02.inst        49340                       # Instruction read bandwidth from this memory (bytes/s)
system.physmem.bw_inst_read::switch_cpus03.inst        50488                       # Instruction read bandwidth from this memory (bytes/s)
system.physmem.bw_inst_read::switch_cpus04.inst        39013                       # Instruction read bandwidth from this memory (bytes/s)
system.physmem.bw_inst_read::switch_cpus05.inst        44751                       # Instruction read bandwidth from this memory (bytes/s)
system.physmem.bw_inst_read::switch_cpus06.inst        44751                       # Instruction read bandwidth from this memory (bytes/s)
system.physmem.bw_inst_read::switch_cpus07.inst        43603                       # Instruction read bandwidth from this memory (bytes/s)
system.physmem.bw_inst_read::switch_cpus08.inst        45898                       # Instruction read bandwidth from this memory (bytes/s)
system.physmem.bw_inst_read::switch_cpus09.inst        44751                       # Instruction read bandwidth from this memory (bytes/s)
system.physmem.bw_inst_read::switch_cpus10.inst        43603                       # Instruction read bandwidth from this memory (bytes/s)
system.physmem.bw_inst_read::switch_cpus11.inst        42456                       # Instruction read bandwidth from this memory (bytes/s)
system.physmem.bw_inst_read::switch_cpus12.inst        47046                       # Instruction read bandwidth from this memory (bytes/s)
system.physmem.bw_inst_read::switch_cpus13.inst        44751                       # Instruction read bandwidth from this memory (bytes/s)
system.physmem.bw_inst_read::switch_cpus14.inst        45898                       # Instruction read bandwidth from this memory (bytes/s)
system.physmem.bw_inst_read::switch_cpus15.inst        44751                       # Instruction read bandwidth from this memory (bytes/s)
system.physmem.bw_inst_read::total             720600                       # Instruction read bandwidth from this memory (bytes/s)
system.physmem.bw_write::writebacks          97418720                       # Write bandwidth from this memory (bytes/s)
system.physmem.bw_write::total               97418720                       # Write bandwidth from this memory (bytes/s)
system.physmem.bw_total::writebacks          97418720                       # Total bandwidth to/from this memory (bytes/s)
system.physmem.bw_total::switch_cpus00.inst        45898                       # Total bandwidth to/from this memory (bytes/s)
system.physmem.bw_total::switch_cpus00.data     13748776                       # Total bandwidth to/from this memory (bytes/s)
system.physmem.bw_total::switch_cpus01.inst        43603                       # Total bandwidth to/from this memory (bytes/s)
system.physmem.bw_total::switch_cpus01.data      9899073                       # Total bandwidth to/from this memory (bytes/s)
system.physmem.bw_total::switch_cpus02.inst        49340                       # Total bandwidth to/from this memory (bytes/s)
system.physmem.bw_total::switch_cpus02.data     39719069                       # Total bandwidth to/from this memory (bytes/s)
system.physmem.bw_total::switch_cpus03.inst        50488                       # Total bandwidth to/from this memory (bytes/s)
system.physmem.bw_total::switch_cpus03.data     13757956                       # Total bandwidth to/from this memory (bytes/s)
system.physmem.bw_total::switch_cpus04.inst        39013                       # Total bandwidth to/from this memory (bytes/s)
system.physmem.bw_total::switch_cpus04.data     20806757                       # Total bandwidth to/from this memory (bytes/s)
system.physmem.bw_total::switch_cpus05.inst        44751                       # Total bandwidth to/from this memory (bytes/s)
system.physmem.bw_total::switch_cpus05.data     21364419                       # Total bandwidth to/from this memory (bytes/s)
system.physmem.bw_total::switch_cpus06.inst        44751                       # Total bandwidth to/from this memory (bytes/s)
system.physmem.bw_total::switch_cpus06.data     39638748                       # Total bandwidth to/from this memory (bytes/s)
system.physmem.bw_total::switch_cpus07.inst        43603                       # Total bandwidth to/from this memory (bytes/s)
system.physmem.bw_total::switch_cpus07.data      9911695                       # Total bandwidth to/from this memory (bytes/s)
system.physmem.bw_total::switch_cpus08.inst        45898                       # Total bandwidth to/from this memory (bytes/s)
system.physmem.bw_total::switch_cpus08.data     33494139                       # Total bandwidth to/from this memory (bytes/s)
system.physmem.bw_total::switch_cpus09.inst        44751                       # Total bandwidth to/from this memory (bytes/s)
system.physmem.bw_total::switch_cpus09.data     33413818                       # Total bandwidth to/from this memory (bytes/s)
system.physmem.bw_total::switch_cpus10.inst        43603                       # Total bandwidth to/from this memory (bytes/s)
system.physmem.bw_total::switch_cpus10.data      9919727                       # Total bandwidth to/from this memory (bytes/s)
system.physmem.bw_total::switch_cpus11.inst        42456                       # Total bandwidth to/from this memory (bytes/s)
system.physmem.bw_total::switch_cpus11.data     21420644                       # Total bandwidth to/from this memory (bytes/s)
system.physmem.bw_total::switch_cpus12.inst        47046                       # Total bandwidth to/from this memory (bytes/s)
system.physmem.bw_total::switch_cpus12.data     33409228                       # Total bandwidth to/from this memory (bytes/s)
system.physmem.bw_total::switch_cpus13.inst        44751                       # Total bandwidth to/from this memory (bytes/s)
system.physmem.bw_total::switch_cpus13.data      9910548                       # Total bandwidth to/from this memory (bytes/s)
system.physmem.bw_total::switch_cpus14.inst        45898                       # Total bandwidth to/from this memory (bytes/s)
system.physmem.bw_total::switch_cpus14.data     13748776                       # Total bandwidth to/from this memory (bytes/s)
system.physmem.bw_total::switch_cpus15.inst        44751                       # Total bandwidth to/from this memory (bytes/s)
system.physmem.bw_total::switch_cpus15.data     33487255                       # Total bandwidth to/from this memory (bytes/s)
system.physmem.bw_total::total              455789948                       # Total bandwidth to/from this memory (bytes/s)
system.switch_cpus00.dtb.inst_hits                  0                       # ITB inst hits
system.switch_cpus00.dtb.inst_misses                0                       # ITB inst misses
system.switch_cpus00.dtb.read_hits                  0                       # DTB read hits
system.switch_cpus00.dtb.read_misses                0                       # DTB read misses
system.switch_cpus00.dtb.write_hits                 0                       # DTB write hits
system.switch_cpus00.dtb.write_misses               0                       # DTB write misses
system.switch_cpus00.dtb.flush_tlb                  0                       # Number of times complete TLB was flushed
system.switch_cpus00.dtb.flush_tlb_mva              0                       # Number of times TLB was flushed by MVA
system.switch_cpus00.dtb.flush_tlb_mva_asid            0                       # Number of times TLB was flushed by MVA & ASID
system.switch_cpus00.dtb.flush_tlb_asid             0                       # Number of times TLB was flushed by ASID
system.switch_cpus00.dtb.flush_entries              0                       # Number of entries that have been flushed from TLB
system.switch_cpus00.dtb.align_faults               0                       # Number of TLB faults due to alignment restrictions
system.switch_cpus00.dtb.prefetch_faults            0                       # Number of TLB faults due to prefetch
system.switch_cpus00.dtb.domain_faults              0                       # Number of TLB faults due to domain restrictions
system.switch_cpus00.dtb.perms_faults               0                       # Number of TLB faults due to permissions restrictions
system.switch_cpus00.dtb.read_accesses              0                       # DTB read accesses
system.switch_cpus00.dtb.write_accesses             0                       # DTB write accesses
system.switch_cpus00.dtb.inst_accesses              0                       # ITB inst accesses
system.switch_cpus00.dtb.hits                       0                       # DTB hits
system.switch_cpus00.dtb.misses                     0                       # DTB misses
system.switch_cpus00.dtb.accesses                   0                       # DTB accesses
system.switch_cpus00.itb.inst_hits                  0                       # ITB inst hits
system.switch_cpus00.itb.inst_misses                0                       # ITB inst misses
system.switch_cpus00.itb.read_hits                  0                       # DTB read hits
system.switch_cpus00.itb.read_misses                0                       # DTB read misses
system.switch_cpus00.itb.write_hits                 0                       # DTB write hits
system.switch_cpus00.itb.write_misses               0                       # DTB write misses
system.switch_cpus00.itb.flush_tlb                  0                       # Number of times complete TLB was flushed
system.switch_cpus00.itb.flush_tlb_mva              0                       # Number of times TLB was flushed by MVA
system.switch_cpus00.itb.flush_tlb_mva_asid            0                       # Number of times TLB was flushed by MVA & ASID
system.switch_cpus00.itb.flush_tlb_asid             0                       # Number of times TLB was flushed by ASID
system.switch_cpus00.itb.flush_entries              0                       # Number of entries that have been flushed from TLB
system.switch_cpus00.itb.align_faults               0                       # Number of TLB faults due to alignment restrictions
system.switch_cpus00.itb.prefetch_faults            0                       # Number of TLB faults due to prefetch
system.switch_cpus00.itb.domain_faults              0                       # Number of TLB faults due to domain restrictions
system.switch_cpus00.itb.perms_faults               0                       # Number of TLB faults due to permissions restrictions
system.switch_cpus00.itb.read_accesses              0                       # DTB read accesses
system.switch_cpus00.itb.write_accesses             0                       # DTB write accesses
system.switch_cpus00.itb.inst_accesses              0                       # ITB inst accesses
system.switch_cpus00.itb.hits                       0                       # DTB hits
system.switch_cpus00.itb.misses                     0                       # DTB misses
system.switch_cpus00.itb.accesses                   0                       # DTB accesses
system.cpu00.workload.num_syscalls                 53                       # Number of system calls
system.switch_cpus00.numCycles              267509486                       # number of cpu cycles simulated
system.switch_cpus00.numWorkItemsStarted            0                       # number of work items this cpu started
system.switch_cpus00.numWorkItemsCompleted            0                       # number of work items this cpu completed
system.switch_cpus00.BPredUnit.lookups       20643116                       # Number of BP lookups
system.switch_cpus00.BPredUnit.condPredicted     16889356                       # Number of conditional branches predicted
system.switch_cpus00.BPredUnit.condIncorrect      2023695                       # Number of conditional branches incorrect
system.switch_cpus00.BPredUnit.BTBLookups      8657513                       # Number of BTB lookups
system.switch_cpus00.BPredUnit.BTBHits        8137890                       # Number of BTB hits
system.switch_cpus00.BPredUnit.BTBCorrect            0                       # Number of correct BTB predictions (this stat may not work properly.
system.switch_cpus00.BPredUnit.usedRAS        2136174                       # Number of times the RAS was used to get a target.
system.switch_cpus00.BPredUnit.RASInCorrect        92427                       # Number of incorrect RAS predictions.
system.switch_cpus00.fetch.icacheStallCycles    199115602                       # Number of cycles fetch is stalled on an Icache miss
system.switch_cpus00.fetch.Insts            115386431                       # Number of instructions fetch has processed
system.switch_cpus00.fetch.Branches          20643116                       # Number of branches that fetch encountered
system.switch_cpus00.fetch.predictedBranches     10274064                       # Number of branches that fetch has predicted taken
system.switch_cpus00.fetch.Cycles            24099242                       # Number of cycles fetch has run and was not squashing or blocked
system.switch_cpus00.fetch.SquashCycles       5498189                       # Number of cycles fetch has spent squashing
system.switch_cpus00.fetch.BlockedCycles     10867433                       # Number of cycles fetch has spent blocked
system.switch_cpus00.fetch.CacheLines        12181498                       # Number of cache lines fetched
system.switch_cpus00.fetch.IcacheSquashes      2024699                       # Number of outstanding Icache misses that were squashed
system.switch_cpus00.fetch.rateDist::samples    237530526                       # Number of instructions fetched each cycle (Total)
system.switch_cpus00.fetch.rateDist::mean     0.596648                       # Number of instructions fetched each cycle (Total)
system.switch_cpus00.fetch.rateDist::stdev     1.931081                       # Number of instructions fetched each cycle (Total)
system.switch_cpus00.fetch.rateDist::underflows            0      0.00%      0.00% # Number of instructions fetched each cycle (Total)
system.switch_cpus00.fetch.rateDist::0      213431284     89.85%     89.85% # Number of instructions fetched each cycle (Total)
system.switch_cpus00.fetch.rateDist::1        1124303      0.47%     90.33% # Number of instructions fetched each cycle (Total)
system.switch_cpus00.fetch.rateDist::2        1784581      0.75%     91.08% # Number of instructions fetched each cycle (Total)
system.switch_cpus00.fetch.rateDist::3        2420718      1.02%     92.10% # Number of instructions fetched each cycle (Total)
system.switch_cpus00.fetch.rateDist::4        2489730      1.05%     93.15% # Number of instructions fetched each cycle (Total)
system.switch_cpus00.fetch.rateDist::5        2107889      0.89%     94.03% # Number of instructions fetched each cycle (Total)
system.switch_cpus00.fetch.rateDist::6        1177438      0.50%     94.53% # Number of instructions fetched each cycle (Total)
system.switch_cpus00.fetch.rateDist::7        1753075      0.74%     95.27% # Number of instructions fetched each cycle (Total)
system.switch_cpus00.fetch.rateDist::8       11241508      4.73%    100.00% # Number of instructions fetched each cycle (Total)
system.switch_cpus00.fetch.rateDist::overflows            0      0.00%    100.00% # Number of instructions fetched each cycle (Total)
system.switch_cpus00.fetch.rateDist::min_value            0                       # Number of instructions fetched each cycle (Total)
system.switch_cpus00.fetch.rateDist::max_value            8                       # Number of instructions fetched each cycle (Total)
system.switch_cpus00.fetch.rateDist::total    237530526                       # Number of instructions fetched each cycle (Total)
system.switch_cpus00.fetch.branchRate        0.077168                       # Number of branch fetches per cycle
system.switch_cpus00.fetch.rate              0.431336                       # Number of inst fetches per cycle
system.switch_cpus00.decode.IdleCycles      197065737                       # Number of cycles decode is idle
system.switch_cpus00.decode.BlockedCycles     12934835                       # Number of cycles decode is blocked
system.switch_cpus00.decode.RunCycles        24054613                       # Number of cycles decode is running
system.switch_cpus00.decode.UnblockCycles        27459                       # Number of cycles decode is unblocking
system.switch_cpus00.decode.SquashCycles      3447877                       # Number of cycles decode is squashing
system.switch_cpus00.decode.BranchResolved      3398591                       # Number of times decode resolved a branch
system.switch_cpus00.decode.BranchMispred          373                       # Number of times decode detected a branch misprediction
system.switch_cpus00.decode.DecodedInsts    141611978                       # Number of instructions handled by decode
system.switch_cpus00.decode.SquashedInsts         1952                       # Number of squashed instructions handled by decode
system.switch_cpus00.rename.SquashCycles      3447877                       # Number of cycles rename is squashing
system.switch_cpus00.rename.IdleCycles      197603825                       # Number of cycles rename is idle
system.switch_cpus00.rename.BlockCycles       1759288                       # Number of cycles rename is blocking
system.switch_cpus00.rename.serializeStallCycles      9922238                       # count of cycles rename stalled for serializing inst
system.switch_cpus00.rename.RunCycles        23550120                       # Number of cycles rename is running
system.switch_cpus00.rename.UnblockCycles      1247173                       # Number of cycles rename is unblocking
system.switch_cpus00.rename.RenamedInsts    141560298                       # Number of instructions processed by rename
system.switch_cpus00.rename.ROBFullEvents          187                       # Number of times rename has blocked due to ROB full
system.switch_cpus00.rename.IQFullEvents       185829                       # Number of times rename has blocked due to IQ full
system.switch_cpus00.rename.LSQFullEvents       534817                       # Number of times rename has blocked due to LSQ full
system.switch_cpus00.rename.RenamedOperands    197547559                       # Number of destination operands rename has renamed
system.switch_cpus00.rename.RenameLookups    658513488                       # Number of register rename lookups that rename has made
system.switch_cpus00.rename.int_rename_lookups    658513488                       # Number of integer rename lookups
system.switch_cpus00.rename.CommittedMaps    171545509                       # Number of HB maps that are committed
system.switch_cpus00.rename.UndoneMaps       26002018                       # Number of HB maps that are undone due to squashing
system.switch_cpus00.rename.serializingInsts        35603                       # count of serializing insts renamed
system.switch_cpus00.rename.tempSerializingInsts        18735                       # count of temporary serializing insts renamed
system.switch_cpus00.rename.skidInsts         3699800                       # count of insts added to the skid buffer
system.switch_cpus00.memDep0.insertedLoads     13262734                       # Number of loads inserted to the mem dependence unit.
system.switch_cpus00.memDep0.insertedStores      7183625                       # Number of stores inserted to the mem dependence unit.
system.switch_cpus00.memDep0.conflictingLoads        84610                       # Number of conflicting loads.
system.switch_cpus00.memDep0.conflictingStores      1735119                       # Number of conflicting stores.
system.switch_cpus00.iq.iqInstsAdded        141400711                       # Number of instructions added to the IQ (excludes non-spec)
system.switch_cpus00.iq.iqNonSpecInstsAdded        35728                       # Number of non-speculative instructions added to the IQ
system.switch_cpus00.iq.iqInstsIssued       134420620                       # Number of instructions issued
system.switch_cpus00.iq.iqSquashedInstsIssued        18371                       # Number of squashed instructions issued
system.switch_cpus00.iq.iqSquashedInstsExamined     15419193                       # Number of squashed instructions iterated over during squash; mainly for profiling
system.switch_cpus00.iq.iqSquashedOperandsExamined     36721806                       # Number of squashed operands that are examined and possibly removed from graph
system.switch_cpus00.iq.iqSquashedNonSpecRemoved         1720                       # Number of squashed non-spec instructions that were removed
system.switch_cpus00.iq.issued_per_cycle::samples    237530526                       # Number of insts issued each cycle
system.switch_cpus00.iq.issued_per_cycle::mean     0.565909                       # Number of insts issued each cycle
system.switch_cpus00.iq.issued_per_cycle::stdev     1.258573                       # Number of insts issued each cycle
system.switch_cpus00.iq.issued_per_cycle::underflows            0      0.00%      0.00% # Number of insts issued each cycle
system.switch_cpus00.iq.issued_per_cycle::0    180600018     76.03%     76.03% # Number of insts issued each cycle
system.switch_cpus00.iq.issued_per_cycle::1     23452753      9.87%     85.91% # Number of insts issued each cycle
system.switch_cpus00.iq.issued_per_cycle::2     11870665      5.00%     90.90% # Number of insts issued each cycle
system.switch_cpus00.iq.issued_per_cycle::3      8911846      3.75%     94.66% # Number of insts issued each cycle
system.switch_cpus00.iq.issued_per_cycle::4      7012044      2.95%     97.61% # Number of insts issued each cycle
system.switch_cpus00.iq.issued_per_cycle::5      2836928      1.19%     98.80% # Number of insts issued each cycle
system.switch_cpus00.iq.issued_per_cycle::6      1790101      0.75%     99.56% # Number of insts issued each cycle
system.switch_cpus00.iq.issued_per_cycle::7       931791      0.39%     99.95% # Number of insts issued each cycle
system.switch_cpus00.iq.issued_per_cycle::8       124380      0.05%    100.00% # Number of insts issued each cycle
system.switch_cpus00.iq.issued_per_cycle::overflows            0      0.00%    100.00% # Number of insts issued each cycle
system.switch_cpus00.iq.issued_per_cycle::min_value            0                       # Number of insts issued each cycle
system.switch_cpus00.iq.issued_per_cycle::max_value            8                       # Number of insts issued each cycle
system.switch_cpus00.iq.issued_per_cycle::total    237530526                       # Number of insts issued each cycle
system.switch_cpus00.iq.fu_full::No_OpClass            0      0.00%      0.00% # attempts to use FU when none available
system.switch_cpus00.iq.fu_full::IntAlu         25261     11.30%     11.30% # attempts to use FU when none available
system.switch_cpus00.iq.fu_full::IntMult            0      0.00%     11.30% # attempts to use FU when none available
system.switch_cpus00.iq.fu_full::IntDiv             0      0.00%     11.30% # attempts to use FU when none available
system.switch_cpus00.iq.fu_full::FloatAdd            0      0.00%     11.30% # attempts to use FU when none available
system.switch_cpus00.iq.fu_full::FloatCmp            0      0.00%     11.30% # attempts to use FU when none available
system.switch_cpus00.iq.fu_full::FloatCvt            0      0.00%     11.30% # attempts to use FU when none available
system.switch_cpus00.iq.fu_full::FloatMult            0      0.00%     11.30% # attempts to use FU when none available
system.switch_cpus00.iq.fu_full::FloatDiv            0      0.00%     11.30% # attempts to use FU when none available
system.switch_cpus00.iq.fu_full::FloatSqrt            0      0.00%     11.30% # attempts to use FU when none available
system.switch_cpus00.iq.fu_full::SimdAdd            0      0.00%     11.30% # attempts to use FU when none available
system.switch_cpus00.iq.fu_full::SimdAddAcc            0      0.00%     11.30% # attempts to use FU when none available
system.switch_cpus00.iq.fu_full::SimdAlu            0      0.00%     11.30% # attempts to use FU when none available
system.switch_cpus00.iq.fu_full::SimdCmp            0      0.00%     11.30% # attempts to use FU when none available
system.switch_cpus00.iq.fu_full::SimdCvt            0      0.00%     11.30% # attempts to use FU when none available
system.switch_cpus00.iq.fu_full::SimdMisc            0      0.00%     11.30% # attempts to use FU when none available
system.switch_cpus00.iq.fu_full::SimdMult            0      0.00%     11.30% # attempts to use FU when none available
system.switch_cpus00.iq.fu_full::SimdMultAcc            0      0.00%     11.30% # attempts to use FU when none available
system.switch_cpus00.iq.fu_full::SimdShift            0      0.00%     11.30% # attempts to use FU when none available
system.switch_cpus00.iq.fu_full::SimdShiftAcc            0      0.00%     11.30% # attempts to use FU when none available
system.switch_cpus00.iq.fu_full::SimdSqrt            0      0.00%     11.30% # attempts to use FU when none available
system.switch_cpus00.iq.fu_full::SimdFloatAdd            0      0.00%     11.30% # attempts to use FU when none available
system.switch_cpus00.iq.fu_full::SimdFloatAlu            0      0.00%     11.30% # attempts to use FU when none available
system.switch_cpus00.iq.fu_full::SimdFloatCmp            0      0.00%     11.30% # attempts to use FU when none available
system.switch_cpus00.iq.fu_full::SimdFloatCvt            0      0.00%     11.30% # attempts to use FU when none available
system.switch_cpus00.iq.fu_full::SimdFloatDiv            0      0.00%     11.30% # attempts to use FU when none available
system.switch_cpus00.iq.fu_full::SimdFloatMisc            0      0.00%     11.30% # attempts to use FU when none available
system.switch_cpus00.iq.fu_full::SimdFloatMult            0      0.00%     11.30% # attempts to use FU when none available
system.switch_cpus00.iq.fu_full::SimdFloatMultAcc            0      0.00%     11.30% # attempts to use FU when none available
system.switch_cpus00.iq.fu_full::SimdFloatSqrt            0      0.00%     11.30% # attempts to use FU when none available
system.switch_cpus00.iq.fu_full::MemRead        81843     36.62%     47.93% # attempts to use FU when none available
system.switch_cpus00.iq.fu_full::MemWrite       116367     52.07%    100.00% # attempts to use FU when none available
system.switch_cpus00.iq.fu_full::IprAccess            0      0.00%    100.00% # attempts to use FU when none available
system.switch_cpus00.iq.fu_full::InstPrefetch            0      0.00%    100.00% # attempts to use FU when none available
system.switch_cpus00.iq.FU_type_0::No_OpClass            0      0.00%      0.00% # Type of FU issued
system.switch_cpus00.iq.FU_type_0::IntAlu    113060610     84.11%     84.11% # Type of FU issued
system.switch_cpus00.iq.FU_type_0::IntMult      2001326      1.49%     85.60% # Type of FU issued
system.switch_cpus00.iq.FU_type_0::IntDiv            0      0.00%     85.60% # Type of FU issued
system.switch_cpus00.iq.FU_type_0::FloatAdd            0      0.00%     85.60% # Type of FU issued
system.switch_cpus00.iq.FU_type_0::FloatCmp            0      0.00%     85.60% # Type of FU issued
system.switch_cpus00.iq.FU_type_0::FloatCvt            0      0.00%     85.60% # Type of FU issued
system.switch_cpus00.iq.FU_type_0::FloatMult            0      0.00%     85.60% # Type of FU issued
system.switch_cpus00.iq.FU_type_0::FloatDiv            0      0.00%     85.60% # Type of FU issued
system.switch_cpus00.iq.FU_type_0::FloatSqrt            0      0.00%     85.60% # Type of FU issued
system.switch_cpus00.iq.FU_type_0::SimdAdd            0      0.00%     85.60% # Type of FU issued
system.switch_cpus00.iq.FU_type_0::SimdAddAcc            0      0.00%     85.60% # Type of FU issued
system.switch_cpus00.iq.FU_type_0::SimdAlu            0      0.00%     85.60% # Type of FU issued
system.switch_cpus00.iq.FU_type_0::SimdCmp            0      0.00%     85.60% # Type of FU issued
system.switch_cpus00.iq.FU_type_0::SimdCvt            0      0.00%     85.60% # Type of FU issued
system.switch_cpus00.iq.FU_type_0::SimdMisc            0      0.00%     85.60% # Type of FU issued
system.switch_cpus00.iq.FU_type_0::SimdMult            0      0.00%     85.60% # Type of FU issued
system.switch_cpus00.iq.FU_type_0::SimdMultAcc            0      0.00%     85.60% # Type of FU issued
system.switch_cpus00.iq.FU_type_0::SimdShift            0      0.00%     85.60% # Type of FU issued
system.switch_cpus00.iq.FU_type_0::SimdShiftAcc            0      0.00%     85.60% # Type of FU issued
system.switch_cpus00.iq.FU_type_0::SimdSqrt            0      0.00%     85.60% # Type of FU issued
system.switch_cpus00.iq.FU_type_0::SimdFloatAdd            0      0.00%     85.60% # Type of FU issued
system.switch_cpus00.iq.FU_type_0::SimdFloatAlu            0      0.00%     85.60% # Type of FU issued
system.switch_cpus00.iq.FU_type_0::SimdFloatCmp            0      0.00%     85.60% # Type of FU issued
system.switch_cpus00.iq.FU_type_0::SimdFloatCvt            0      0.00%     85.60% # Type of FU issued
system.switch_cpus00.iq.FU_type_0::SimdFloatDiv            0      0.00%     85.60% # Type of FU issued
system.switch_cpus00.iq.FU_type_0::SimdFloatMisc        16862      0.01%     85.61% # Type of FU issued
system.switch_cpus00.iq.FU_type_0::SimdFloatMult            0      0.00%     85.61% # Type of FU issued
system.switch_cpus00.iq.FU_type_0::SimdFloatMultAcc            0      0.00%     85.61% # Type of FU issued
system.switch_cpus00.iq.FU_type_0::SimdFloatSqrt            0      0.00%     85.61% # Type of FU issued
system.switch_cpus00.iq.FU_type_0::MemRead     12180952      9.06%     94.67% # Type of FU issued
system.switch_cpus00.iq.FU_type_0::MemWrite      7160870      5.33%    100.00% # Type of FU issued
system.switch_cpus00.iq.FU_type_0::IprAccess            0      0.00%    100.00% # Type of FU issued
system.switch_cpus00.iq.FU_type_0::InstPrefetch            0      0.00%    100.00% # Type of FU issued
system.switch_cpus00.iq.FU_type_0::total    134420620                       # Type of FU issued
system.switch_cpus00.iq.rate                 0.502489                       # Inst issue rate
system.switch_cpus00.iq.fu_busy_cnt            223471                       # FU busy when requested
system.switch_cpus00.iq.fu_busy_rate         0.001662                       # FU busy rate (busy events/executed inst)
system.switch_cpus00.iq.int_inst_queue_reads    506613607                       # Number of integer instruction queue reads
system.switch_cpus00.iq.int_inst_queue_writes    156856177                       # Number of integer instruction queue writes
system.switch_cpus00.iq.int_inst_queue_wakeup_accesses    132397463                       # Number of integer instruction queue wakeup accesses
system.switch_cpus00.iq.fp_inst_queue_reads            0                       # Number of floating instruction queue reads
system.switch_cpus00.iq.fp_inst_queue_writes            0                       # Number of floating instruction queue writes
system.switch_cpus00.iq.fp_inst_queue_wakeup_accesses            0                       # Number of floating instruction queue wakeup accesses
system.switch_cpus00.iq.int_alu_accesses    134644091                       # Number of integer alu accesses
system.switch_cpus00.iq.fp_alu_accesses             0                       # Number of floating point alu accesses
system.switch_cpus00.iew.lsq.thread0.forwLoads       273173                       # Number of loads that had data forwarded from stores
system.switch_cpus00.iew.lsq.thread0.invAddrLoads            0                       # Number of loads ignored due to an invalid address
system.switch_cpus00.iew.lsq.thread0.squashedLoads      2118453                       # Number of loads squashed
system.switch_cpus00.iew.lsq.thread0.ignoredResponses           98                       # Number of memory responses ignored because the instruction is squashed
system.switch_cpus00.iew.lsq.thread0.memOrderViolation          548                       # Number of memory ordering violations
system.switch_cpus00.iew.lsq.thread0.squashedStores        94022                       # Number of stores squashed
system.switch_cpus00.iew.lsq.thread0.invAddrSwpfs            0                       # Number of software prefetches ignored due to an invalid address
system.switch_cpus00.iew.lsq.thread0.blockedLoads            0                       # Number of blocked loads due to partial load-store forwarding
system.switch_cpus00.iew.lsq.thread0.rescheduledLoads            0                       # Number of loads that were rescheduled
system.switch_cpus00.iew.lsq.thread0.cacheBlocked            0                       # Number of times an access to memory failed due to the cache being blocked
system.switch_cpus00.iew.iewIdleCycles              0                       # Number of cycles IEW is idle
system.switch_cpus00.iew.iewSquashCycles      3447877                       # Number of cycles IEW is squashing
system.switch_cpus00.iew.iewBlockCycles       1456901                       # Number of cycles IEW is blocking
system.switch_cpus00.iew.iewUnblockCycles       121846                       # Number of cycles IEW is unblocking
system.switch_cpus00.iew.iewDispatchedInsts    141436581                       # Number of instructions dispatched to IQ
system.switch_cpus00.iew.iewDispSquashedInsts        18155                       # Number of squashed instructions skipped by dispatch
system.switch_cpus00.iew.iewDispLoadInsts     13262734                       # Number of dispatched load instructions
system.switch_cpus00.iew.iewDispStoreInsts      7183625                       # Number of dispatched store instructions
system.switch_cpus00.iew.iewDispNonSpecInsts        18740                       # Number of dispatched non-speculative instructions
system.switch_cpus00.iew.iewIQFullEvents       102673                       # Number of times the IQ has become full, causing a stall
system.switch_cpus00.iew.iewLSQFullEvents            2                       # Number of times the LSQ has become full, causing a stall
system.switch_cpus00.iew.memOrderViolationEvents          548                       # Number of memory order violations
system.switch_cpus00.iew.predictedTakenIncorrect      1180941                       # Number of branches that were predicted taken incorrectly
system.switch_cpus00.iew.predictedNotTakenIncorrect      1131761                       # Number of branches that were predicted not taken incorrectly
system.switch_cpus00.iew.branchMispredicts      2312702                       # Number of branch mispredicts detected at execute
system.switch_cpus00.iew.iewExecutedInsts    132557126                       # Number of executed instructions
system.switch_cpus00.iew.iewExecLoadInsts     11462268                       # Number of load instructions executed
system.switch_cpus00.iew.iewExecSquashedInsts      1863493                       # Number of squashed instructions skipped in execute
system.switch_cpus00.iew.exec_swp                   0                       # number of swp insts executed
system.switch_cpus00.iew.exec_nop                 142                       # number of nop insts executed
system.switch_cpus00.iew.exec_refs           18622865                       # number of memory reference insts executed
system.switch_cpus00.iew.exec_branches       18844331                       # Number of branches executed
system.switch_cpus00.iew.exec_stores          7160597                       # Number of stores executed
system.switch_cpus00.iew.exec_rate           0.495523                       # Inst execution rate
system.switch_cpus00.iew.wb_sent            132397685                       # cumulative count of insts sent to commit
system.switch_cpus00.iew.wb_count           132397463                       # cumulative count of insts written-back
system.switch_cpus00.iew.wb_producers        75997237                       # num instructions producing a value
system.switch_cpus00.iew.wb_consumers       204775698                       # num instructions consuming a value
system.switch_cpus00.iew.wb_penalized               0                       # number of instrctions required to write to 'other' IQ
system.switch_cpus00.iew.wb_rate             0.494926                       # insts written-back per cycle
system.switch_cpus00.iew.wb_fanout           0.371124                       # average fanout of values written-back
system.switch_cpus00.iew.wb_penalized_rate            0                       # fraction of instructions written-back that wrote to 'other' IQ
system.switch_cpus00.commit.commitCommittedInsts    100000006                       # The number of committed instructions
system.switch_cpus00.commit.commitCommittedOps    123048947                       # The number of committed instructions
system.switch_cpus00.commit.commitSquashedInsts     18387638                       # The number of squashed insts skipped by commit
system.switch_cpus00.commit.commitNonSpecStalls        34008                       # The number of times commit has been forced to stall to communicate backwards
system.switch_cpus00.commit.branchMispredicts      2049200                       # The number of times a branch was mispredicted
system.switch_cpus00.commit.committed_per_cycle::samples    234082649                       # Number of insts commited each cycle
system.switch_cpus00.commit.committed_per_cycle::mean     0.525665                       # Number of insts commited each cycle
system.switch_cpus00.commit.committed_per_cycle::stdev     1.372327                       # Number of insts commited each cycle
system.switch_cpus00.commit.committed_per_cycle::underflows            0      0.00%      0.00% # Number of insts commited each cycle
system.switch_cpus00.commit.committed_per_cycle::0    183573507     78.42%     78.42% # Number of insts commited each cycle
system.switch_cpus00.commit.committed_per_cycle::1     25045298     10.70%     89.12% # Number of insts commited each cycle
system.switch_cpus00.commit.committed_per_cycle::2      9453593      4.04%     93.16% # Number of insts commited each cycle
system.switch_cpus00.commit.committed_per_cycle::3      4507227      1.93%     95.09% # Number of insts commited each cycle
system.switch_cpus00.commit.committed_per_cycle::4      3814502      1.63%     96.72% # Number of insts commited each cycle
system.switch_cpus00.commit.committed_per_cycle::5      2181104      0.93%     97.65% # Number of insts commited each cycle
system.switch_cpus00.commit.committed_per_cycle::6      1894158      0.81%     98.46% # Number of insts commited each cycle
system.switch_cpus00.commit.committed_per_cycle::7       859774      0.37%     98.82% # Number of insts commited each cycle
system.switch_cpus00.commit.committed_per_cycle::8      2753486      1.18%    100.00% # Number of insts commited each cycle
system.switch_cpus00.commit.committed_per_cycle::overflows            0      0.00%    100.00% # Number of insts commited each cycle
system.switch_cpus00.commit.committed_per_cycle::min_value            0                       # Number of insts commited each cycle
system.switch_cpus00.commit.committed_per_cycle::max_value            8                       # Number of insts commited each cycle
system.switch_cpus00.commit.committed_per_cycle::total    234082649                       # Number of insts commited each cycle
system.switch_cpus00.commit.committedInsts    100000006                       # Number of instructions committed
system.switch_cpus00.commit.committedOps    123048947                       # Number of ops (including micro ops) committed
system.switch_cpus00.commit.swp_count               0                       # Number of s/w prefetches committed
system.switch_cpus00.commit.refs             18233884                       # Number of memory references committed
system.switch_cpus00.commit.loads            11144281                       # Number of loads committed
system.switch_cpus00.commit.membars             16966                       # Number of memory barriers committed
system.switch_cpus00.commit.branches         17743911                       # Number of branches committed
system.switch_cpus00.commit.fp_insts                0                       # Number of committed floating point instructions.
system.switch_cpus00.commit.int_insts       110865559                       # Number of committed integer instructions.
system.switch_cpus00.commit.function_calls      2533833                       # Number of function calls committed.
system.switch_cpus00.commit.bw_lim_events      2753486                       # number cycles where commit BW limit reached
system.switch_cpus00.commit.bw_limited              0                       # number of insts not committed due to BW limits
system.switch_cpus00.rob.rob_reads          372765059                       # The number of ROB reads
system.switch_cpus00.rob.rob_writes         286321111                       # The number of ROB writes
system.switch_cpus00.timesIdled               3020353                       # Number of times that the entire CPU went into an idle state and unscheduled itself
system.switch_cpus00.idleCycles              29978960                       # Total number of cycles that the CPU has spent unscheduled due to idling
system.switch_cpus00.committedInsts         100000006                       # Number of Instructions Simulated
system.switch_cpus00.committedOps           123048947                       # Number of Ops (including micro ops) Simulated
system.switch_cpus00.committedInsts_total    100000006                       # Number of Instructions Simulated
system.switch_cpus00.cpi                     2.675095                       # CPI: Cycles Per Instruction
system.switch_cpus00.cpi_total               2.675095                       # CPI: Total CPI of All Threads
system.switch_cpus00.ipc                     0.373819                       # IPC: Instructions Per Cycle
system.switch_cpus00.ipc_total               0.373819                       # IPC: Total IPC of All Threads
system.switch_cpus00.int_regfile_reads      596624698                       # number of integer regfile reads
system.switch_cpus00.int_regfile_writes     184430741                       # number of integer regfile writes
system.switch_cpus00.misc_regfile_reads     131274097                       # number of misc regfile reads
system.switch_cpus00.misc_regfile_writes        33978                       # number of misc regfile writes
system.switch_cpus01.dtb.inst_hits                  0                       # ITB inst hits
system.switch_cpus01.dtb.inst_misses                0                       # ITB inst misses
system.switch_cpus01.dtb.read_hits                  0                       # DTB read hits
system.switch_cpus01.dtb.read_misses                0                       # DTB read misses
system.switch_cpus01.dtb.write_hits                 0                       # DTB write hits
system.switch_cpus01.dtb.write_misses               0                       # DTB write misses
system.switch_cpus01.dtb.flush_tlb                  0                       # Number of times complete TLB was flushed
system.switch_cpus01.dtb.flush_tlb_mva              0                       # Number of times TLB was flushed by MVA
system.switch_cpus01.dtb.flush_tlb_mva_asid            0                       # Number of times TLB was flushed by MVA & ASID
system.switch_cpus01.dtb.flush_tlb_asid             0                       # Number of times TLB was flushed by ASID
system.switch_cpus01.dtb.flush_entries              0                       # Number of entries that have been flushed from TLB
system.switch_cpus01.dtb.align_faults               0                       # Number of TLB faults due to alignment restrictions
system.switch_cpus01.dtb.prefetch_faults            0                       # Number of TLB faults due to prefetch
system.switch_cpus01.dtb.domain_faults              0                       # Number of TLB faults due to domain restrictions
system.switch_cpus01.dtb.perms_faults               0                       # Number of TLB faults due to permissions restrictions
system.switch_cpus01.dtb.read_accesses              0                       # DTB read accesses
system.switch_cpus01.dtb.write_accesses             0                       # DTB write accesses
system.switch_cpus01.dtb.inst_accesses              0                       # ITB inst accesses
system.switch_cpus01.dtb.hits                       0                       # DTB hits
system.switch_cpus01.dtb.misses                     0                       # DTB misses
system.switch_cpus01.dtb.accesses                   0                       # DTB accesses
system.switch_cpus01.itb.inst_hits                  0                       # ITB inst hits
[...]
system.cpu15.icache.demand_avg_miss_latency::total 1892780.174603                       # average overall miss latency
system.cpu15.icache.overall_avg_miss_latency::switch_cpus15.inst 1892780.174603                       # average overall miss latency
system.cpu15.icache.overall_avg_miss_latency::total 1892780.174603                       # average overall miss latency
system.cpu15.icache.blocked_cycles::no_mshrs            0                       # number of cycles access was blocked
system.cpu15.icache.blocked_cycles::no_targets            0                       # number of cycles access was blocked
system.cpu15.icache.blocked::no_mshrs               0                       # number of cycles access was blocked
system.cpu15.icache.blocked::no_targets             0                       # number of cycles access was blocked
system.cpu15.icache.avg_blocked_cycles::no_mshrs          nan                       # average number of cycles each access was blocked
system.cpu15.icache.avg_blocked_cycles::no_targets          nan                       # average number of cycles each access was blocked
system.cpu15.icache.fast_writes                     0                       # number of fast writes performed
system.cpu15.icache.cache_copies                    0                       # number of cache copies performed
system.cpu15.icache.ReadReq_mshr_hits::switch_cpus15.inst           23                       # number of ReadReq MSHR hits
system.cpu15.icache.ReadReq_mshr_hits::total           23                       # number of ReadReq MSHR hits
system.cpu15.icache.demand_mshr_hits::switch_cpus15.inst           23                       # number of demand (read+write) MSHR hits
system.cpu15.icache.demand_mshr_hits::total           23                       # number of demand (read+write) MSHR hits
system.cpu15.icache.overall_mshr_hits::switch_cpus15.inst           23                       # number of overall MSHR hits
system.cpu15.icache.overall_mshr_hits::total           23                       # number of overall MSHR hits
system.cpu15.icache.ReadReq_mshr_misses::switch_cpus15.inst           40                       # number of ReadReq MSHR misses
system.cpu15.icache.ReadReq_mshr_misses::total           40                       # number of ReadReq MSHR misses
system.cpu15.icache.demand_mshr_misses::switch_cpus15.inst           40                       # number of demand (read+write) MSHR misses
system.cpu15.icache.demand_mshr_misses::total           40                       # number of demand (read+write) MSHR misses
system.cpu15.icache.overall_mshr_misses::switch_cpus15.inst           40                       # number of overall MSHR misses
system.cpu15.icache.overall_mshr_misses::total           40                       # number of overall MSHR misses
system.cpu15.icache.ReadReq_mshr_miss_latency::switch_cpus15.inst     78021449                       # number of ReadReq MSHR miss cycles
system.cpu15.icache.ReadReq_mshr_miss_latency::total     78021449                       # number of ReadReq MSHR miss cycles
system.cpu15.icache.demand_mshr_miss_latency::switch_cpus15.inst     78021449                       # number of demand (read+write) MSHR miss cycles
system.cpu15.icache.demand_mshr_miss_latency::total     78021449                       # number of demand (read+write) MSHR miss cycles
system.cpu15.icache.overall_mshr_miss_latency::switch_cpus15.inst     78021449                       # number of overall MSHR miss cycles
system.cpu15.icache.overall_mshr_miss_latency::total     78021449                       # number of overall MSHR miss cycles
system.cpu15.icache.ReadReq_mshr_miss_rate::switch_cpus15.inst     0.000004                       # mshr miss rate for ReadReq accesses
system.cpu15.icache.ReadReq_mshr_miss_rate::total     0.000004                       # mshr miss rate for ReadReq accesses
system.cpu15.icache.demand_mshr_miss_rate::switch_cpus15.inst     0.000004                       # mshr miss rate for demand accesses
system.cpu15.icache.demand_mshr_miss_rate::total     0.000004                       # mshr miss rate for demand accesses
system.cpu15.icache.overall_mshr_miss_rate::switch_cpus15.inst     0.000004                       # mshr miss rate for overall accesses
system.cpu15.icache.overall_mshr_miss_rate::total     0.000004                       # mshr miss rate for overall accesses
system.cpu15.icache.ReadReq_avg_mshr_miss_latency::switch_cpus15.inst 1950536.225000                       # average ReadReq mshr miss latency
system.cpu15.icache.ReadReq_avg_mshr_miss_latency::total 1950536.225000                       # average ReadReq mshr miss latency
system.cpu15.icache.demand_avg_mshr_miss_latency::switch_cpus15.inst 1950536.225000                       # average overall mshr miss latency
system.cpu15.icache.demand_avg_mshr_miss_latency::total 1950536.225000                       # average overall mshr miss latency
system.cpu15.icache.overall_avg_mshr_miss_latency::switch_cpus15.inst 1950536.225000                       # average overall mshr miss latency
system.cpu15.icache.overall_avg_mshr_miss_latency::total 1950536.225000                       # average overall mshr miss latency
system.cpu15.icache.no_allocate_misses              0                       # Number of misses that were no-allocate
system.cpu15.dcache.replacements                66190                       # number of replacements
system.cpu15.dcache.tagsinuse                     256                       # Cycle average of tags in use
system.cpu15.dcache.total_refs              180158707                       # Total number of references to valid blocks.
system.cpu15.dcache.sampled_refs                66446                       # Sample count of references to valid blocks.
system.cpu15.dcache.avg_refs              2711.355191                       # Average number of references to valid blocks.
system.cpu15.dcache.warmup_cycle                    0                       # Cycle when the warmup percentage was hit.
system.cpu15.dcache.occ_blocks::switch_cpus15.data   234.088609                       # Average occupied blocks per requestor
system.cpu15.dcache.occ_blocks::cpu15.data    21.911391                       # Average occupied blocks per requestor
system.cpu15.dcache.occ_percent::switch_cpus15.data     0.914409                       # Average percentage of cache occupancy
system.cpu15.dcache.occ_percent::cpu15.data     0.085591                       # Average percentage of cache occupancy
system.cpu15.dcache.occ_percent::total              1                       # Average percentage of cache occupancy
system.cpu15.dcache.ReadReq_hits::switch_cpus15.data      7801059                       # number of ReadReq hits
system.cpu15.dcache.ReadReq_hits::total       7801059                       # number of ReadReq hits
system.cpu15.dcache.WriteReq_hits::switch_cpus15.data      6461688                       # number of WriteReq hits
system.cpu15.dcache.WriteReq_hits::total      6461688                       # number of WriteReq hits
system.cpu15.dcache.LoadLockedReq_hits::switch_cpus15.data        18652                       # number of LoadLockedReq hits
system.cpu15.dcache.LoadLockedReq_hits::total        18652                       # number of LoadLockedReq hits
system.cpu15.dcache.StoreCondReq_hits::switch_cpus15.data        15076                       # number of StoreCondReq hits
system.cpu15.dcache.StoreCondReq_hits::total        15076                       # number of StoreCondReq hits
system.cpu15.dcache.demand_hits::switch_cpus15.data     14262747                       # number of demand (read+write) hits
system.cpu15.dcache.demand_hits::total       14262747                       # number of demand (read+write) hits
system.cpu15.dcache.overall_hits::switch_cpus15.data     14262747                       # number of overall hits
system.cpu15.dcache.overall_hits::total      14262747                       # number of overall hits
system.cpu15.dcache.ReadReq_misses::switch_cpus15.data       172790                       # number of ReadReq misses
system.cpu15.dcache.ReadReq_misses::total       172790                       # number of ReadReq misses
system.cpu15.dcache.WriteReq_misses::switch_cpus15.data          890                       # number of WriteReq misses
system.cpu15.dcache.WriteReq_misses::total          890                       # number of WriteReq misses
system.cpu15.dcache.demand_misses::switch_cpus15.data       173680                       # number of demand (read+write) misses
system.cpu15.dcache.demand_misses::total       173680                       # number of demand (read+write) misses
system.cpu15.dcache.overall_misses::switch_cpus15.data       173680                       # number of overall misses
system.cpu15.dcache.overall_misses::total       173680                       # number of overall misses
system.cpu15.dcache.ReadReq_miss_latency::switch_cpus15.data  74903320989                       # number of ReadReq miss cycles
system.cpu15.dcache.ReadReq_miss_latency::total  74903320989                       # number of ReadReq miss cycles
system.cpu15.dcache.WriteReq_miss_latency::switch_cpus15.data    355428471                       # number of WriteReq miss cycles
system.cpu15.dcache.WriteReq_miss_latency::total    355428471                       # number of WriteReq miss cycles
system.cpu15.dcache.demand_miss_latency::switch_cpus15.data  75258749460                       # number of demand (read+write) miss cycles
system.cpu15.dcache.demand_miss_latency::total  75258749460                       # number of demand (read+write) miss cycles
system.cpu15.dcache.overall_miss_latency::switch_cpus15.data  75258749460                       # number of overall miss cycles
system.cpu15.dcache.overall_miss_latency::total  75258749460                       # number of overall miss cycles
system.cpu15.dcache.ReadReq_accesses::switch_cpus15.data      7973849                       # number of ReadReq accesses(hits+misses)
system.cpu15.dcache.ReadReq_accesses::total      7973849                       # number of ReadReq accesses(hits+misses)
system.cpu15.dcache.WriteReq_accesses::switch_cpus15.data      6462578                       # number of WriteReq accesses(hits+misses)
system.cpu15.dcache.WriteReq_accesses::total      6462578                       # number of WriteReq accesses(hits+misses)
system.cpu15.dcache.LoadLockedReq_accesses::switch_cpus15.data        18652                       # number of LoadLockedReq accesses(hits+misses)
system.cpu15.dcache.LoadLockedReq_accesses::total        18652                       # number of LoadLockedReq accesses(hits+misses)
system.cpu15.dcache.StoreCondReq_accesses::switch_cpus15.data        15076                       # number of StoreCondReq accesses(hits+misses)
system.cpu15.dcache.StoreCondReq_accesses::total        15076                       # number of StoreCondReq accesses(hits+misses)
system.cpu15.dcache.demand_accesses::switch_cpus15.data     14436427                       # number of demand (read+write) accesses
system.cpu15.dcache.demand_accesses::total     14436427                       # number of demand (read+write) accesses
system.cpu15.dcache.overall_accesses::switch_cpus15.data     14436427                       # number of overall (read+write) accesses
system.cpu15.dcache.overall_accesses::total     14436427                       # number of overall (read+write) accesses
system.cpu15.dcache.ReadReq_miss_rate::switch_cpus15.data     0.021670                       # miss rate for ReadReq accesses
system.cpu15.dcache.ReadReq_miss_rate::total     0.021670                       # miss rate for ReadReq accesses
system.cpu15.dcache.WriteReq_miss_rate::switch_cpus15.data     0.000138                       # miss rate for WriteReq accesses
system.cpu15.dcache.WriteReq_miss_rate::total     0.000138                       # miss rate for WriteReq accesses
system.cpu15.dcache.demand_miss_rate::switch_cpus15.data     0.012031                       # miss rate for demand accesses
system.cpu15.dcache.demand_miss_rate::total     0.012031                       # miss rate for demand accesses
system.cpu15.dcache.overall_miss_rate::switch_cpus15.data     0.012031                       # miss rate for overall accesses
system.cpu15.dcache.overall_miss_rate::total     0.012031                       # miss rate for overall accesses
system.cpu15.dcache.ReadReq_avg_miss_latency::switch_cpus15.data 433493.379183                       # average ReadReq miss latency
system.cpu15.dcache.ReadReq_avg_miss_latency::total 433493.379183                       # average ReadReq miss latency
system.cpu15.dcache.WriteReq_avg_miss_latency::switch_cpus15.data 399357.832584                       # average WriteReq miss latency
system.cpu15.dcache.WriteReq_avg_miss_latency::total 399357.832584                       # average WriteReq miss latency
system.cpu15.dcache.demand_avg_miss_latency::switch_cpus15.data 433318.456126                       # average overall miss latency
system.cpu15.dcache.demand_avg_miss_latency::total 433318.456126                       # average overall miss latency
system.cpu15.dcache.overall_avg_miss_latency::switch_cpus15.data 433318.456126                       # average overall miss latency
system.cpu15.dcache.overall_avg_miss_latency::total 433318.456126                       # average overall miss latency
system.cpu15.dcache.blocked_cycles::no_mshrs            0                       # number of cycles access was blocked
system.cpu15.dcache.blocked_cycles::no_targets       698261                       # number of cycles access was blocked
system.cpu15.dcache.blocked::no_mshrs               0                       # number of cycles access was blocked
system.cpu15.dcache.blocked::no_targets             2                       # number of cycles access was blocked
system.cpu15.dcache.avg_blocked_cycles::no_mshrs          nan                       # average number of cycles each access was blocked
system.cpu15.dcache.avg_blocked_cycles::no_targets 349130.500000                       # average number of cycles each access was blocked
system.cpu15.dcache.fast_writes                     0                       # number of fast writes performed
system.cpu15.dcache.cache_copies                    0                       # number of cache copies performed
system.cpu15.dcache.writebacks::writebacks         7645                       # number of writebacks
system.cpu15.dcache.writebacks::total            7645                       # number of writebacks
system.cpu15.dcache.ReadReq_mshr_hits::switch_cpus15.data       106723                       # number of ReadReq MSHR hits
system.cpu15.dcache.ReadReq_mshr_hits::total       106723                       # number of ReadReq MSHR hits
system.cpu15.dcache.WriteReq_mshr_hits::switch_cpus15.data          765                       # number of WriteReq MSHR hits
system.cpu15.dcache.WriteReq_mshr_hits::total          765                       # number of WriteReq MSHR hits
system.cpu15.dcache.demand_mshr_hits::switch_cpus15.data       107488                       # number of demand (read+write) MSHR hits
system.cpu15.dcache.demand_mshr_hits::total       107488                       # number of demand (read+write) MSHR hits
system.cpu15.dcache.overall_mshr_hits::switch_cpus15.data       107488                       # number of overall MSHR hits
system.cpu15.dcache.overall_mshr_hits::total       107488                       # number of overall MSHR hits
system.cpu15.dcache.ReadReq_mshr_misses::switch_cpus15.data        66067                       # number of ReadReq MSHR misses
system.cpu15.dcache.ReadReq_mshr_misses::total        66067                       # number of ReadReq MSHR misses
system.cpu15.dcache.WriteReq_mshr_misses::switch_cpus15.data          125                       # number of WriteReq MSHR misses
system.cpu15.dcache.WriteReq_mshr_misses::total          125                       # number of WriteReq MSHR misses
system.cpu15.dcache.demand_mshr_misses::switch_cpus15.data        66192                       # number of demand (read+write) MSHR misses
system.cpu15.dcache.demand_mshr_misses::total        66192                       # number of demand (read+write) MSHR misses
system.cpu15.dcache.overall_mshr_misses::switch_cpus15.data        66192                       # number of overall MSHR misses
system.cpu15.dcache.overall_mshr_misses::total        66192                       # number of overall MSHR misses
system.cpu15.dcache.ReadReq_mshr_miss_latency::switch_cpus15.data  29438332922                       # number of ReadReq MSHR miss cycles
system.cpu15.dcache.ReadReq_mshr_miss_latency::total  29438332922                       # number of ReadReq MSHR miss cycles
system.cpu15.dcache.WriteReq_mshr_miss_latency::switch_cpus15.data     34859832                       # number of WriteReq MSHR miss cycles
system.cpu15.dcache.WriteReq_mshr_miss_latency::total     34859832                       # number of WriteReq MSHR miss cycles
system.cpu15.dcache.demand_mshr_miss_latency::switch_cpus15.data  29473192754                       # number of demand (read+write) MSHR miss cycles
system.cpu15.dcache.demand_mshr_miss_latency::total  29473192754                       # number of demand (read+write) MSHR miss cycles
system.cpu15.dcache.overall_mshr_miss_latency::switch_cpus15.data  29473192754                       # number of overall MSHR miss cycles
system.cpu15.dcache.overall_mshr_miss_latency::total  29473192754                       # number of overall MSHR miss cycles
system.cpu15.dcache.ReadReq_mshr_miss_rate::switch_cpus15.data     0.008285                       # mshr miss rate for ReadReq accesses
system.cpu15.dcache.ReadReq_mshr_miss_rate::total     0.008285                       # mshr miss rate for ReadReq accesses
system.cpu15.dcache.WriteReq_mshr_miss_rate::switch_cpus15.data     0.000019                       # mshr miss rate for WriteReq accesses
system.cpu15.dcache.WriteReq_mshr_miss_rate::total     0.000019                       # mshr miss rate for WriteReq accesses
system.cpu15.dcache.demand_mshr_miss_rate::switch_cpus15.data     0.004585                       # mshr miss rate for demand accesses
system.cpu15.dcache.demand_mshr_miss_rate::total     0.004585                       # mshr miss rate for demand accesses
system.cpu15.dcache.overall_mshr_miss_rate::switch_cpus15.data     0.004585                       # mshr miss rate for overall accesses
system.cpu15.dcache.overall_mshr_miss_rate::total     0.004585                       # mshr miss rate for overall accesses
system.cpu15.dcache.ReadReq_avg_mshr_miss_latency::switch_cpus15.data 445583.013032                       # average ReadReq mshr miss latency
system.cpu15.dcache.ReadReq_avg_mshr_miss_latency::total 445583.013032                       # average ReadReq mshr miss latency
system.cpu15.dcache.WriteReq_avg_mshr_miss_latency::switch_cpus15.data 278878.656000                       # average WriteReq mshr miss latency
system.cpu15.dcache.WriteReq_avg_mshr_miss_latency::total 278878.656000                       # average WriteReq mshr miss latency
system.cpu15.dcache.demand_avg_mshr_miss_latency::switch_cpus15.data 445268.200900                       # average overall mshr miss latency
system.cpu15.dcache.demand_avg_mshr_miss_latency::total 445268.200900                       # average overall mshr miss latency
system.cpu15.dcache.overall_avg_mshr_miss_latency::switch_cpus15.data 445268.200900                       # average overall mshr miss latency
system.cpu15.dcache.overall_avg_mshr_miss_latency::total 445268.200900                       # average overall mshr miss latency
system.cpu15.dcache.no_allocate_misses              0                       # Number of misses that were no-allocate

---------- End Simulation Statistics   ----------
