
---------- Begin Simulation Statistics ----------
sim_seconds                                  0.035642                       # Number of seconds simulated
sim_ticks                                 35641553367                       # Number of ticks simulated
final_tick                               565205933304                       # Number of ticks from beginning of simulation (restored from checkpoints and never reset)
sim_freq                                 1000000000000                       # Frequency of simulated ticks
host_inst_rate                                 291144                       # Simulator instruction rate (inst/s)
host_op_rate                                   367604                       # Simulator op (including micro ops) rate (op/s)
host_tick_rate                                2349373                       # Simulator tick rate (ticks/s)
host_mem_usage                               16948784                       # Number of bytes of host memory used
host_seconds                                 15170.67                       # Real time elapsed on the host
sim_insts                                  4416854681                       # Number of instructions simulated
sim_ops                                    5576791132                       # Number of ops (including micro ops) simulated
system.physmem.bytes_read::switch_cpus0.inst         1408                       # Number of bytes read from this memory
system.physmem.bytes_read::switch_cpus0.data       764416                       # Number of bytes read from this memory
system.physmem.bytes_read::switch_cpus1.inst         1792                       # Number of bytes read from this memory
system.physmem.bytes_read::switch_cpus1.data       241536                       # Number of bytes read from this memory
system.physmem.bytes_read::switch_cpus2.inst         2048                       # Number of bytes read from this memory
system.physmem.bytes_read::switch_cpus2.data       234880                       # Number of bytes read from this memory
system.physmem.bytes_read::switch_cpus3.inst         1664                       # Number of bytes read from this memory
system.physmem.bytes_read::switch_cpus3.data       421376                       # Number of bytes read from this memory
system.physmem.bytes_read::total              1669120                       # Number of bytes read from this memory
system.physmem.bytes_inst_read::switch_cpus0.inst         1408                       # Number of instructions bytes read from this memory
system.physmem.bytes_inst_read::switch_cpus1.inst         1792                       # Number of instructions bytes read from this memory
system.physmem.bytes_inst_read::switch_cpus2.inst         2048                       # Number of instructions bytes read from this memory
system.physmem.bytes_inst_read::switch_cpus3.inst         1664                       # Number of instructions bytes read from this memory
system.physmem.bytes_inst_read::total            6912                       # Number of instructions bytes read from this memory
system.physmem.bytes_written::writebacks      1343488                       # Number of bytes written to this memory
system.physmem.bytes_written::total           1343488                       # Number of bytes written to this memory
system.physmem.num_reads::switch_cpus0.inst           11                       # Number of read requests responded to by this memory
system.physmem.num_reads::switch_cpus0.data         5972                       # Number of read requests responded to by this memory
system.physmem.num_reads::switch_cpus1.inst           14                       # Number of read requests responded to by this memory
system.physmem.num_reads::switch_cpus1.data         1887                       # Number of read requests responded to by this memory
system.physmem.num_reads::switch_cpus2.inst           16                       # Number of read requests responded to by this memory
system.physmem.num_reads::switch_cpus2.data         1835                       # Number of read requests responded to by this memory
system.physmem.num_reads::switch_cpus3.inst           13                       # Number of read requests responded to by this memory
system.physmem.num_reads::switch_cpus3.data         3292                       # Number of read requests responded to by this memory
system.physmem.num_reads::total                 13040                       # Number of read requests responded to by this memory
system.physmem.num_writes::writebacks           10496                       # Number of write requests responded to by this memory
system.physmem.num_writes::functional               0                       # Number of write requests responded to by this memory
system.physmem.num_writes::interrupt                0                       # Number of write requests responded to by this memory
system.physmem.num_writes::switch_cpus0.dtb.walker            0                       # Number of write requests responded to by this memory
system.physmem.num_writes::switch_cpus0.itb.walker            0                       # Number of write requests responded to by this memory
system.physmem.num_writes::switch_cpus0.inst            0                       # Number of write requests responded to by this memory
system.physmem.num_writes::switch_cpus0.data            0                       # Number of write requests responded to by this memory
system.physmem.num_writes::switch_cpus1.dtb.walker            0                       # Number of write requests responded to by this memory
system.physmem.num_writes::switch_cpus1.itb.walker            0                       # Number of write requests responded to by this memory
system.physmem.num_writes::switch_cpus1.inst            0                       # Number of write requests responded to by this memory
system.physmem.num_writes::switch_cpus1.data            0                       # Number of write requests responded to by this memory
system.physmem.num_writes::switch_cpus2.dtb.walker            0                       # Number of write requests responded to by this memory
system.physmem.num_writes::switch_cpus2.itb.walker            0                       # Number of write requests responded to by this memory
system.physmem.num_writes::switch_cpus2.inst            0                       # Number of write requests responded to by this memory
system.physmem.num_writes::switch_cpus2.data            0                       # Number of write requests responded to by this memory
system.physmem.num_writes::switch_cpus3.dtb.walker            0                       # Number of write requests responded to by this memory
system.physmem.num_writes::switch_cpus3.itb.walker            0                       # Number of write requests responded to by this memory
system.physmem.num_writes::switch_cpus3.inst            0                       # Number of write requests responded to by this memory
system.physmem.num_writes::switch_cpus3.data            0                       # Number of write requests responded to by this memory
system.physmem.num_writes::cpu0.dtb.walker            0                       # Number of write requests responded to by this memory
system.physmem.num_writes::cpu0.itb.walker            0                       # Number of write requests responded to by this memory
system.physmem.num_writes::cpu0.inst                0                       # Number of write requests responded to by this memory
system.physmem.num_writes::cpu0.data                0                       # Number of write requests responded to by this memory
system.physmem.num_writes::cpu1.dtb.walker            0                       # Number of write requests responded to by this memory
system.physmem.num_writes::cpu1.itb.walker            0                       # Number of write requests responded to by this memory
system.physmem.num_writes::cpu1.inst                0                       # Number of write requests responded to by this memory
system.physmem.num_writes::cpu1.data                0                       # Number of write requests responded to by this memory
system.physmem.num_writes::cpu2.dtb.walker            0                       # Number of write requests responded to by this memory
system.physmem.num_writes::cpu2.itb.walker            0                       # Number of write requests responded to by this memory
system.physmem.num_writes::cpu2.inst                0                       # Number of write requests responded to by this memory
system.physmem.num_writes::cpu2.data                0                       # Number of write requests responded to by this memory
system.physmem.num_writes::cpu3.dtb.walker            0                       # Number of write requests responded to by this memory
system.physmem.num_writes::cpu3.itb.walker            0                       # Number of write requests responded to by this memory
system.physmem.num_writes::cpu3.inst                0                       # Number of write requests responded to by this memory
system.physmem.num_writes::cpu3.data                0                       # Number of write requests responded to by this memory
system.physmem.num_writes::total                10496                       # Number of write requests responded to by this memory
system.physmem.bw_read::switch_cpus0.inst        39504                       # Total read bandwidth from this memory (bytes/s)
system.physmem.bw_read::switch_cpus0.data     21447326                       # Total read bandwidth from this memory (bytes/s)
system.physmem.bw_read::switch_cpus1.inst        50278                       # Total read bandwidth from this memory (bytes/s)
system.physmem.bw_read::switch_cpus1.data      6776809                       # Total read bandwidth from this memory (bytes/s)
system.physmem.bw_read::switch_cpus2.inst        57461                       # Total read bandwidth from this memory (bytes/s)
system.physmem.bw_read::switch_cpus2.data      6590061                       # Total read bandwidth from this memory (bytes/s)
system.physmem.bw_read::switch_cpus3.inst        46687                       # Total read bandwidth from this memory (bytes/s)
system.physmem.bw_read::switch_cpus3.data     11822605                       # Total read bandwidth from this memory (bytes/s)
system.physmem.bw_read::total                46830731                       # Total read bandwidth from this memory (bytes/s)
system.physmem.bw_inst_read::switch_cpus0.inst        39504                       # Instruction read bandwidth from this memory (bytes/s)
system.physmem.bw_inst_read::switch_cpus1.inst        50278                       # Instruction read bandwidth from this memory (bytes/s)
system.physmem.bw_inst_read::switch_cpus2.inst        57461                       # Instruction read bandwidth from this memory (bytes/s)
system.physmem.bw_inst_read::switch_cpus3.inst        46687                       # Instruction read bandwidth from this memory (bytes/s)
system.physmem.bw_inst_read::total             193931                       # Instruction read bandwidth from this memory (bytes/s)
system.physmem.bw_write::writebacks          37694429                       # Write bandwidth from this memory (bytes/s)
system.physmem.bw_write::total               37694429                       # Write bandwidth from this memory (bytes/s)
system.physmem.bw_total::writebacks          37694429                       # Total bandwidth to/from this memory (bytes/s)
system.physmem.bw_total::switch_cpus0.inst        39504                       # Total bandwidth to/from this memory (bytes/s)
system.physmem.bw_total::switch_cpus0.data     21447326                       # Total bandwidth to/from this memory (bytes/s)
system.physmem.bw_total::switch_cpus1.inst        50278                       # Total bandwidth to/from this memory (bytes/s)
system.physmem.bw_total::switch_cpus1.data      6776809                       # Total bandwidth to/from this memory (bytes/s)
system.physmem.bw_total::switch_cpus2.inst        57461                       # Total bandwidth to/from this memory (bytes/s)
system.physmem.bw_total::switch_cpus2.data      6590061                       # Total bandwidth to/from this memory (bytes/s)
system.physmem.bw_total::switch_cpus3.inst        46687                       # Total bandwidth to/from this memory (bytes/s)
system.physmem.bw_total::switch_cpus3.data     11822605                       # Total bandwidth to/from this memory (bytes/s)
system.physmem.bw_total::total               84525160                       # Total bandwidth to/from this memory (bytes/s)
system.switch_cpus0.dtb.inst_hits                   0                       # ITB inst hits
system.switch_cpus0.dtb.inst_misses                 0                       # ITB inst misses
system.switch_cpus0.dtb.read_hits                   0                       # DTB read hits
system.switch_cpus0.dtb.read_misses                 0                       # DTB read misses
system.switch_cpus0.dtb.write_hits                  0                       # DTB write hits
system.switch_cpus0.dtb.write_misses                0                       # DTB write misses
system.switch_cpus0.dtb.flush_tlb                   0                       # Number of times complete TLB was flushed
system.switch_cpus0.dtb.flush_tlb_mva               0                       # Number of times TLB was flushed by MVA
system.switch_cpus0.dtb.flush_tlb_mva_asid            0                       # Number of times TLB was flushed by MVA & ASID
system.switch_cpus0.dtb.flush_tlb_asid              0                       # Number of times TLB was flushed by ASID
system.switch_cpus0.dtb.flush_entries               0                       # Number of entries that have been flushed from TLB
system.switch_cpus0.dtb.align_faults                0                       # Number of TLB faults due to alignment restrictions
system.switch_cpus0.dtb.prefetch_faults             0                       # Number of TLB faults due to prefetch
system.switch_cpus0.dtb.domain_faults               0                       # Number of TLB faults due to domain restrictions
system.switch_cpus0.dtb.perms_faults                0                       # Number of TLB faults due to permissions restrictions
system.switch_cpus0.dtb.read_accesses               0                       # DTB read accesses
system.switch_cpus0.dtb.write_accesses              0                       # DTB write accesses
system.switch_cpus0.dtb.inst_accesses               0                       # ITB inst accesses
system.switch_cpus0.dtb.hits                        0                       # DTB hits
system.switch_cpus0.dtb.misses                      0                       # DTB misses
system.switch_cpus0.dtb.accesses                    0                       # DTB accesses
system.switch_cpus0.itb.inst_hits                   0                       # ITB inst hits
system.switch_cpus0.itb.inst_misses                 0                       # ITB inst misses
system.switch_cpus0.itb.read_hits                   0                       # DTB read hits
system.switch_cpus0.itb.read_misses                 0                       # DTB read misses
system.switch_cpus0.itb.write_hits                  0                       # DTB write hits
system.switch_cpus0.itb.write_misses                0                       # DTB write misses
system.switch_cpus0.itb.flush_tlb                   0                       # Number of times complete TLB was flushed
system.switch_cpus0.itb.flush_tlb_mva               0                       # Number of times TLB was flushed by MVA
system.switch_cpus0.itb.flush_tlb_mva_asid            0                       # Number of times TLB was flushed by MVA & ASID
system.switch_cpus0.itb.flush_tlb_asid              0                       # Number of times TLB was flushed by ASID
system.switch_cpus0.itb.flush_entries               0                       # Number of entries that have been flushed from TLB
system.switch_cpus0.itb.align_faults                0                       # Number of TLB faults due to alignment restrictions
system.switch_cpus0.itb.prefetch_faults             0                       # Number of TLB faults due to prefetch
system.switch_cpus0.itb.domain_faults               0                       # Number of TLB faults due to domain restrictions
system.switch_cpus0.itb.perms_faults                0                       # Number of TLB faults due to permissions restrictions
system.switch_cpus0.itb.read_accesses               0                       # DTB read accesses
system.switch_cpus0.itb.write_accesses              0                       # DTB write accesses
system.switch_cpus0.itb.inst_accesses               0                       # ITB inst accesses
system.switch_cpus0.itb.hits                        0                       # DTB hits
system.switch_cpus0.itb.misses                      0                       # DTB misses
system.switch_cpus0.itb.accesses                    0                       # DTB accesses
system.cpu0.workload.num_syscalls                   0                       # Number of system calls
system.switch_cpus0.numCycles                85471352                       # number of cpu cycles simulated
system.switch_cpus0.numWorkItemsStarted             0                       # number of work items this cpu started
system.switch_cpus0.numWorkItemsCompleted            0                       # number of work items this cpu completed
system.switch_cpus0.BPredUnit.lookups        31004445                       # Number of BP lookups
system.switch_cpus0.BPredUnit.condPredicted     25442011                       # Number of conditional branches predicted
system.switch_cpus0.BPredUnit.condIncorrect      2018298                       # Number of conditional branches incorrect
system.switch_cpus0.BPredUnit.BTBLookups     13042021                       # Number of BTB lookups
system.switch_cpus0.BPredUnit.BTBHits        12088221                       # Number of BTB hits
system.switch_cpus0.BPredUnit.BTBCorrect            0                       # Number of correct BTB predictions (this stat may not work properly.
system.switch_cpus0.BPredUnit.usedRAS         3158159                       # Number of times the RAS was used to get a target.
system.switch_cpus0.BPredUnit.RASInCorrect        87153                       # Number of incorrect RAS predictions.
system.switch_cpus0.fetch.icacheStallCycles     32035862                       # Number of cycles fetch is stalled on an Icache miss
system.switch_cpus0.fetch.Insts             170401798                       # Number of instructions fetch has processed
system.switch_cpus0.fetch.Branches           31004445                       # Number of branches that fetch encountered
system.switch_cpus0.fetch.predictedBranches     15246380                       # Number of branches that fetch has predicted taken
system.switch_cpus0.fetch.Cycles             36613893                       # Number of cycles fetch has run and was not squashing or blocked
system.switch_cpus0.fetch.SquashCycles       10820091                       # Number of cycles fetch has spent squashing
system.switch_cpus0.fetch.BlockedCycles       6474187                       # Number of cycles fetch has spent blocked
system.switch_cpus0.fetch.PendingTrapStallCycles            1                       # Number of stall cycles due to pending traps
system.switch_cpus0.fetch.CacheLines         15669238                       # Number of cache lines fetched
system.switch_cpus0.fetch.IcacheSquashes       803101                       # Number of outstanding Icache misses that were squashed
system.switch_cpus0.fetch.rateDist::samples     83893510                       # Number of instructions fetched each cycle (Total)
system.switch_cpus0.fetch.rateDist::mean     2.495751                       # Number of instructions fetched each cycle (Total)
system.switch_cpus0.fetch.rateDist::stdev     3.336413                       # Number of instructions fetched each cycle (Total)
system.switch_cpus0.fetch.rateDist::underflows            0      0.00%      0.00% # Number of instructions fetched each cycle (Total)
system.switch_cpus0.fetch.rateDist::0        47279617     56.36%     56.36% # Number of instructions fetched each cycle (Total)
system.switch_cpus0.fetch.rateDist::1         3657925      4.36%     60.72% # Number of instructions fetched each cycle (Total)
system.switch_cpus0.fetch.rateDist::2         3205454      3.82%     64.54% # Number of instructions fetched each cycle (Total)
system.switch_cpus0.fetch.rateDist::3         3444968      4.11%     68.64% # Number of instructions fetched each cycle (Total)
system.switch_cpus0.fetch.rateDist::4         2997224      3.57%     72.22% # Number of instructions fetched each cycle (Total)
system.switch_cpus0.fetch.rateDist::5         1570820      1.87%     74.09% # Number of instructions fetched each cycle (Total)
system.switch_cpus0.fetch.rateDist::6         1029123      1.23%     75.32% # Number of instructions fetched each cycle (Total)
system.switch_cpus0.fetch.rateDist::7         2711232      3.23%     78.55% # Number of instructions fetched each cycle (Total)
system.switch_cpus0.fetch.rateDist::8        17997147     21.45%    100.00% # Number of instructions fetched each cycle (Total)
system.switch_cpus0.fetch.rateDist::overflows            0      0.00%    100.00% # Number of instructions fetched each cycle (Total)
system.switch_cpus0.fetch.rateDist::min_value            0                       # Number of instructions fetched each cycle (Total)
system.switch_cpus0.fetch.rateDist::max_value            8                       # Number of instructions fetched each cycle (Total)
system.switch_cpus0.fetch.rateDist::total     83893510                       # Number of instructions fetched each cycle (Total)
system.switch_cpus0.fetch.branchRate         0.362747                       # Number of branch fetches per cycle
system.switch_cpus0.fetch.rate               1.993671                       # Number of inst fetches per cycle
system.switch_cpus0.decode.IdleCycles        33696554                       # Number of cycles decode is idle
system.switch_cpus0.decode.BlockedCycles      6057405                       # Number of cycles decode is blocked
system.switch_cpus0.decode.RunCycles         34829970                       # Number of cycles decode is running
system.switch_cpus0.decode.UnblockCycles       546450                       # Number of cycles decode is unblocking
system.switch_cpus0.decode.SquashCycles       8763122                       # Number of cycles decode is squashing
system.switch_cpus0.decode.BranchResolved      5072911                       # Number of times decode resolved a branch
system.switch_cpus0.decode.BranchMispred         6565                       # Number of times decode detected a branch misprediction
system.switch_cpus0.decode.DecodedInsts     202069480                       # Number of instructions handled by decode
system.switch_cpus0.decode.SquashedInsts        51003                       # Number of squashed instructions handled by decode
system.switch_cpus0.rename.SquashCycles       8763122                       # Number of cycles rename is squashing
system.switch_cpus0.rename.IdleCycles        35366723                       # Number of cycles rename is idle
system.switch_cpus0.rename.BlockCycles        2585541                       # Number of cycles rename is blocking
system.switch_cpus0.rename.serializeStallCycles       765527                       # count of cycles rename stalled for serializing inst
system.switch_cpus0.rename.RunCycles         33671832                       # Number of cycles rename is running
system.switch_cpus0.rename.UnblockCycles      2740757                       # Number of cycles rename is unblocking
system.switch_cpus0.rename.RenamedInsts     195220652                       # Number of instructions processed by rename
system.switch_cpus0.rename.ROBFullEvents        12318                       # Number of times rename has blocked due to ROB full
system.switch_cpus0.rename.IQFullEvents       1715847                       # Number of times rename has blocked due to IQ full
system.switch_cpus0.rename.LSQFullEvents       749305                       # Number of times rename has blocked due to LSQ full
system.switch_cpus0.rename.FullRegisterEvents           37                       # Number of times there has been no free registers
system.switch_cpus0.rename.RenamedOperands    271223634                       # Number of destination operands rename has renamed
system.switch_cpus0.rename.RenameLookups    910340285                       # Number of register rename lookups that rename has made
system.switch_cpus0.rename.int_rename_lookups    910340285                       # Number of integer rename lookups
system.switch_cpus0.rename.CommittedMaps    168259218                       # Number of HB maps that are committed
system.switch_cpus0.rename.UndoneMaps       102964370                       # Number of HB maps that are undone due to squashing
system.switch_cpus0.rename.serializingInsts        33612                       # count of serializing insts renamed
system.switch_cpus0.rename.tempSerializingInsts        17569                       # count of temporary serializing insts renamed
system.switch_cpus0.rename.skidInsts          7262425                       # count of insts added to the skid buffer
system.switch_cpus0.memDep0.insertedLoads     19243886                       # Number of loads inserted to the mem dependence unit.
system.switch_cpus0.memDep0.insertedStores     10025321                       # Number of stores inserted to the mem dependence unit.
system.switch_cpus0.memDep0.conflictingLoads       240694                       # Number of conflicting loads.
system.switch_cpus0.memDep0.conflictingStores      3062244                       # Number of conflicting stores.
system.switch_cpus0.iq.iqInstsAdded         184023225                       # Number of instructions added to the IQ (excludes non-spec)
system.switch_cpus0.iq.iqNonSpecInstsAdded        33575                       # Number of non-speculative instructions added to the IQ
system.switch_cpus0.iq.iqInstsIssued        147816896                       # Number of instructions issued
system.switch_cpus0.iq.iqSquashedInstsIssued       287731                       # Number of squashed instructions issued
system.switch_cpus0.iq.iqSquashedInstsExamined     61107650                       # Number of squashed instructions iterated over during squash; mainly for profiling
system.switch_cpus0.iq.iqSquashedOperandsExamined    186786017                       # Number of squashed operands that are examined and possibly removed from graph
system.switch_cpus0.iq.iqSquashedNonSpecRemoved         1531                       # Number of squashed non-spec instructions that were removed
system.switch_cpus0.iq.issued_per_cycle::samples     83893510                       # Number of insts issued each cycle
system.switch_cpus0.iq.issued_per_cycle::mean     1.761959                       # Number of insts issued each cycle
system.switch_cpus0.iq.issued_per_cycle::stdev     1.909890                       # Number of insts issued each cycle
system.switch_cpus0.iq.issued_per_cycle::underflows            0      0.00%      0.00% # Number of insts issued each cycle
system.switch_cpus0.iq.issued_per_cycle::0     29672780     35.37%     35.37% # Number of insts issued each cycle
system.switch_cpus0.iq.issued_per_cycle::1     17881720     21.31%     56.68% # Number of insts issued each cycle
system.switch_cpus0.iq.issued_per_cycle::2     11923814     14.21%     70.90% # Number of insts issued each cycle
system.switch_cpus0.iq.issued_per_cycle::3      7639935      9.11%     80.00% # Number of insts issued each cycle
system.switch_cpus0.iq.issued_per_cycle::4      7559567      9.01%     89.02% # Number of insts issued each cycle
system.switch_cpus0.iq.issued_per_cycle::5      4420722      5.27%     94.28% # Number of insts issued each cycle
system.switch_cpus0.iq.issued_per_cycle::6      3393389      4.04%     98.33% # Number of insts issued each cycle
system.switch_cpus0.iq.issued_per_cycle::7       747133      0.89%     99.22% # Number of insts issued each cycle
system.switch_cpus0.iq.issued_per_cycle::8       654450      0.78%    100.00% # Number of insts issued each cycle
system.switch_cpus0.iq.issued_per_cycle::overflows            0      0.00%    100.00% # Number of insts issued each cycle
system.switch_cpus0.iq.issued_per_cycle::min_value            0                       # Number of insts issued each cycle
system.switch_cpus0.iq.issued_per_cycle::max_value            8                       # Number of insts issued each cycle
system.switch_cpus0.iq.issued_per_cycle::total     83893510                       # Number of insts issued each cycle
system.switch_cpus0.iq.fu_full::No_OpClass            0      0.00%      0.00% # attempts to use FU when none available
system.switch_cpus0.iq.fu_full::IntAlu        1084170     70.00%     70.00% # attempts to use FU when none available
system.switch_cpus0.iq.fu_full::IntMult            41      0.00%     70.01% # attempts to use FU when none available
system.switch_cpus0.iq.fu_full::IntDiv              0      0.00%     70.01% # attempts to use FU when none available
system.switch_cpus0.iq.fu_full::FloatAdd            0      0.00%     70.01% # attempts to use FU when none available
system.switch_cpus0.iq.fu_full::FloatCmp            0      0.00%     70.01% # attempts to use FU when none available
system.switch_cpus0.iq.fu_full::FloatCvt            0      0.00%     70.01% # attempts to use FU when none available
system.switch_cpus0.iq.fu_full::FloatMult            0      0.00%     70.01% # attempts to use FU when none available
system.switch_cpus0.iq.fu_full::FloatDiv            0      0.00%     70.01% # attempts to use FU when none available
system.switch_cpus0.iq.fu_full::FloatSqrt            0      0.00%     70.01% # attempts to use FU when none available
system.switch_cpus0.iq.fu_full::SimdAdd             0      0.00%     70.01% # attempts to use FU when none available
system.switch_cpus0.iq.fu_full::SimdAddAcc            0      0.00%     70.01% # attempts to use FU when none available
system.switch_cpus0.iq.fu_full::SimdAlu             0      0.00%     70.01% # attempts to use FU when none available
system.switch_cpus0.iq.fu_full::SimdCmp             0      0.00%     70.01% # attempts to use FU when none available
system.switch_cpus0.iq.fu_full::SimdCvt             0      0.00%     70.01% # attempts to use FU when none available
system.switch_cpus0.iq.fu_full::SimdMisc            0      0.00%     70.01% # attempts to use FU when none available
system.switch_cpus0.iq.fu_full::SimdMult            0      0.00%     70.01% # attempts to use FU when none available
system.switch_cpus0.iq.fu_full::SimdMultAcc            0      0.00%     70.01% # attempts to use FU when none available
system.switch_cpus0.iq.fu_full::SimdShift            0      0.00%     70.01% # attempts to use FU when none available
system.switch_cpus0.iq.fu_full::SimdShiftAcc            0      0.00%     70.01% # attempts to use FU when none available
system.switch_cpus0.iq.fu_full::SimdSqrt            0      0.00%     70.01% # attempts to use FU when none available
system.switch_cpus0.iq.fu_full::SimdFloatAdd            0      0.00%     70.01% # attempts to use FU when none available
system.switch_cpus0.iq.fu_full::SimdFloatAlu            0      0.00%     70.01% # attempts to use FU when none available
system.switch_cpus0.iq.fu_full::SimdFloatCmp            0      0.00%     70.01% # attempts to use FU when none available
system.switch_cpus0.iq.fu_full::SimdFloatCvt            0      0.00%     70.01% # attempts to use FU when none available
system.switch_cpus0.iq.fu_full::SimdFloatDiv            0      0.00%     70.01% # attempts to use FU when none available
system.switch_cpus0.iq.fu_full::SimdFloatMisc            0      0.00%     70.01% # attempts to use FU when none available
system.switch_cpus0.iq.fu_full::SimdFloatMult            0      0.00%     70.01% # attempts to use FU when none available
system.switch_cpus0.iq.fu_full::SimdFloatMultAcc            0      0.00%     70.01% # attempts to use FU when none available
system.switch_cpus0.iq.fu_full::SimdFloatSqrt            0      0.00%     70.01% # attempts to use FU when none available
system.switch_cpus0.iq.fu_full::MemRead        203854     13.16%     83.17% # attempts to use FU when none available
system.switch_cpus0.iq.fu_full::MemWrite       260687     16.83%    100.00% # attempts to use FU when none available
system.switch_cpus0.iq.fu_full::IprAccess            0      0.00%    100.00% # attempts to use FU when none available
system.switch_cpus0.iq.fu_full::InstPrefetch            0      0.00%    100.00% # attempts to use FU when none available
system.switch_cpus0.iq.FU_type_0::No_OpClass            0      0.00%      0.00% # Type of FU issued
system.switch_cpus0.iq.FU_type_0::IntAlu    121596993     82.26%     82.26% # Type of FU issued
system.switch_cpus0.iq.FU_type_0::IntMult      2018706      1.37%     83.63% # Type of FU issued
system.switch_cpus0.iq.FU_type_0::IntDiv            0      0.00%     83.63% # Type of FU issued
system.switch_cpus0.iq.FU_type_0::FloatAdd            0      0.00%     83.63% # Type of FU issued
system.switch_cpus0.iq.FU_type_0::FloatCmp            0      0.00%     83.63% # Type of FU issued
system.switch_cpus0.iq.FU_type_0::FloatCvt            0      0.00%     83.63% # Type of FU issued
system.switch_cpus0.iq.FU_type_0::FloatMult            0      0.00%     83.63% # Type of FU issued
system.switch_cpus0.iq.FU_type_0::FloatDiv            0      0.00%     83.63% # Type of FU issued
system.switch_cpus0.iq.FU_type_0::FloatSqrt            0      0.00%     83.63% # Type of FU issued
system.switch_cpus0.iq.FU_type_0::SimdAdd            0      0.00%     83.63% # Type of FU issued
system.switch_cpus0.iq.FU_type_0::SimdAddAcc            0      0.00%     83.63% # Type of FU issued
system.switch_cpus0.iq.FU_type_0::SimdAlu            0      0.00%     83.63% # Type of FU issued
system.switch_cpus0.iq.FU_type_0::SimdCmp            0      0.00%     83.63% # Type of FU issued
system.switch_cpus0.iq.FU_type_0::SimdCvt            0      0.00%     83.63% # Type of FU issued
system.switch_cpus0.iq.FU_type_0::SimdMisc            0      0.00%     83.63% # Type of FU issued
system.switch_cpus0.iq.FU_type_0::SimdMult            0      0.00%     83.63% # Type of FU issued
system.switch_cpus0.iq.FU_type_0::SimdMultAcc            0      0.00%     83.63% # Type of FU issued
system.switch_cpus0.iq.FU_type_0::SimdShift            0      0.00%     83.63% # Type of FU issued
system.switch_cpus0.iq.FU_type_0::SimdShiftAcc            0      0.00%     83.63% # Type of FU issued
system.switch_cpus0.iq.FU_type_0::SimdSqrt            0      0.00%     83.63% # Type of FU issued
system.switch_cpus0.iq.FU_type_0::SimdFloatAdd            0      0.00%     83.63% # Type of FU issued
system.switch_cpus0.iq.FU_type_0::SimdFloatAlu            0      0.00%     83.63% # Type of FU issued
system.switch_cpus0.iq.FU_type_0::SimdFloatCmp            0      0.00%     83.63% # Type of FU issued
system.switch_cpus0.iq.FU_type_0::SimdFloatCvt            0      0.00%     83.63% # Type of FU issued
system.switch_cpus0.iq.FU_type_0::SimdFloatDiv            0      0.00%     83.63% # Type of FU issued
system.switch_cpus0.iq.FU_type_0::SimdFloatMisc        16022      0.01%     83.64% # Type of FU issued
system.switch_cpus0.iq.FU_type_0::SimdFloatMult            0      0.00%     83.64% # Type of FU issued
system.switch_cpus0.iq.FU_type_0::SimdFloatMultAcc            0      0.00%     83.64% # Type of FU issued
system.switch_cpus0.iq.FU_type_0::SimdFloatSqrt            0      0.00%     83.64% # Type of FU issued
system.switch_cpus0.iq.FU_type_0::MemRead     15742061     10.65%     94.29% # Type of FU issued
system.switch_cpus0.iq.FU_type_0::MemWrite      8443114      5.71%    100.00% # Type of FU issued
system.switch_cpus0.iq.FU_type_0::IprAccess            0      0.00%    100.00% # Type of FU issued
system.switch_cpus0.iq.FU_type_0::InstPrefetch            0      0.00%    100.00% # Type of FU issued
system.switch_cpus0.iq.FU_type_0::total     147816896                       # Type of FU issued
system.switch_cpus0.iq.rate                  1.729432                       # Inst issue rate
system.switch_cpus0.iq.fu_busy_cnt            1548752                       # FU busy when requested
system.switch_cpus0.iq.fu_busy_rate          0.010478                       # FU busy rate (busy events/executed inst)
system.switch_cpus0.iq.int_inst_queue_reads    381363781                       # Number of integer instruction queue reads
system.switch_cpus0.iq.int_inst_queue_writes    245165504                       # Number of integer instruction queue writes
system.switch_cpus0.iq.int_inst_queue_wakeup_accesses    143675227                       # Number of integer instruction queue wakeup accesses
system.switch_cpus0.iq.fp_inst_queue_reads            0                       # Number of floating instruction queue reads
system.switch_cpus0.iq.fp_inst_queue_writes            0                       # Number of floating instruction queue writes
system.switch_cpus0.iq.fp_inst_queue_wakeup_accesses            0                       # Number of floating instruction queue wakeup accesses
system.switch_cpus0.iq.int_alu_accesses     149365648                       # Number of integer alu accesses
system.switch_cpus0.iq.fp_alu_accesses              0                       # Number of floating point alu accesses
system.switch_cpus0.iew.lsq.thread0.forwLoads       262303                       # Number of loads that had data forwarded from stores
system.switch_cpus0.iew.lsq.thread0.invAddrLoads            0                       # Number of loads ignored due to an invalid address
system.switch_cpus0.iew.lsq.thread0.squashedLoads      7031757                       # Number of loads squashed
system.switch_cpus0.iew.lsq.thread0.ignoredResponses          498                       # Number of memory responses ignored because the instruction is squashed
system.switch_cpus0.iew.lsq.thread0.memOrderViolation         1065                       # Number of memory ordering violations
system.switch_cpus0.iew.lsq.thread0.squashedStores      2283648                       # Number of stores squashed
system.switch_cpus0.iew.lsq.thread0.invAddrSwpfs            0                       # Number of software prefetches ignored due to an invalid address
system.switch_cpus0.iew.lsq.thread0.blockedLoads            0                       # Number of blocked loads due to partial load-store forwarding
system.switch_cpus0.iew.lsq.thread0.rescheduledLoads          569                       # Number of loads that were rescheduled
system.switch_cpus0.iew.lsq.thread0.cacheBlocked            0                       # Number of times an access to memory failed due to the cache being blocked
system.switch_cpus0.iew.iewIdleCycles               0                       # Number of cycles IEW is idle
system.switch_cpus0.iew.iewSquashCycles       8763122                       # Number of cycles IEW is squashing
system.switch_cpus0.iew.iewBlockCycles        1842497                       # Number of cycles IEW is blocking
system.switch_cpus0.iew.iewUnblockCycles       156965                       # Number of cycles IEW is unblocking
system.switch_cpus0.iew.iewDispatchedInsts    184056800                       # Number of instructions dispatched to IQ
system.switch_cpus0.iew.iewDispSquashedInsts       319749                       # Number of squashed instructions skipped by dispatch
system.switch_cpus0.iew.iewDispLoadInsts     19243886                       # Number of dispatched load instructions
system.switch_cpus0.iew.iewDispStoreInsts     10025321                       # Number of dispatched store instructions
system.switch_cpus0.iew.iewDispNonSpecInsts        17553                       # Number of dispatched non-speculative instructions
system.switch_cpus0.iew.iewIQFullEvents        113022                       # Number of times the IQ has become full, causing a stall
system.switch_cpus0.iew.iewLSQFullEvents         6676                       # Number of times the LSQ has become full, causing a stall
system.switch_cpus0.iew.memOrderViolationEvents         1065                       # Number of memory order violations
system.switch_cpus0.iew.predictedTakenIncorrect      1234983                       # Number of branches that were predicted taken incorrectly
system.switch_cpus0.iew.predictedNotTakenIncorrect      1129327                       # Number of branches that were predicted not taken incorrectly
system.switch_cpus0.iew.branchMispredicts      2364310                       # Number of branch mispredicts detected at execute
system.switch_cpus0.iew.iewExecutedInsts    145239149                       # Number of executed instructions
system.switch_cpus0.iew.iewExecLoadInsts     14792590                       # Number of load instructions executed
system.switch_cpus0.iew.iewExecSquashedInsts      2577743                       # Number of squashed instructions skipped in execute
system.switch_cpus0.iew.exec_swp                    0                       # number of swp insts executed
system.switch_cpus0.iew.exec_nop                    0                       # number of nop insts executed
system.switch_cpus0.iew.exec_refs            22993135                       # number of memory reference insts executed
system.switch_cpus0.iew.exec_branches        20585640                       # Number of branches executed
system.switch_cpus0.iew.exec_stores           8200545                       # Number of stores executed
system.switch_cpus0.iew.exec_rate            1.699273                       # Inst execution rate
system.switch_cpus0.iew.wb_sent             143820789                       # cumulative count of insts sent to commit
system.switch_cpus0.iew.wb_count            143675227                       # cumulative count of insts written-back
system.switch_cpus0.iew.wb_producers         93733774                       # num instructions producing a value
system.switch_cpus0.iew.wb_consumers        261817584                       # num instructions consuming a value
system.switch_cpus0.iew.wb_penalized                0                       # number of instrctions required to write to 'other' IQ
system.switch_cpus0.iew.wb_rate              1.680975                       # insts written-back per cycle
system.switch_cpus0.iew.wb_fanout            0.358012                       # average fanout of values written-back
system.switch_cpus0.iew.wb_penalized_rate            0                       # fraction of instructions written-back that wrote to 'other' IQ
system.switch_cpus0.commit.commitCommittedInsts    100000000                       # The number of committed instructions
system.switch_cpus0.commit.commitCommittedOps    122421920                       # The number of committed instructions
system.switch_cpus0.commit.commitSquashedInsts     61638074                       # The number of squashed insts skipped by commit
system.switch_cpus0.commit.commitNonSpecStalls        32044                       # The number of times commit has been forced to stall to communicate backwards
system.switch_cpus0.commit.branchMispredicts      2043329                       # The number of times a branch was mispredicted
system.switch_cpus0.commit.committed_per_cycle::samples     75130388                       # Number of insts commited each cycle
system.switch_cpus0.commit.committed_per_cycle::mean     1.629459                       # Number of insts commited each cycle
system.switch_cpus0.commit.committed_per_cycle::stdev     2.172680                       # Number of insts commited each cycle
system.switch_cpus0.commit.committed_per_cycle::underflows            0      0.00%      0.00% # Number of insts commited each cycle
system.switch_cpus0.commit.committed_per_cycle::0     29805073     39.67%     39.67% # Number of insts commited each cycle
system.switch_cpus0.commit.committed_per_cycle::1     20462570     27.24%     66.91% # Number of insts commited each cycle
system.switch_cpus0.commit.committed_per_cycle::2      8394638     11.17%     78.08% # Number of insts commited each cycle
system.switch_cpus0.commit.committed_per_cycle::3      4291073      5.71%     83.79% # Number of insts commited each cycle
system.switch_cpus0.commit.committed_per_cycle::4      3676238      4.89%     88.69% # Number of insts commited each cycle
system.switch_cpus0.commit.committed_per_cycle::5      1805166      2.40%     91.09% # Number of insts commited each cycle
system.switch_cpus0.commit.committed_per_cycle::6      1995876      2.66%     93.74% # Number of insts commited each cycle
system.switch_cpus0.commit.committed_per_cycle::7      1007215      1.34%     95.09% # Number of insts commited each cycle
system.switch_cpus0.commit.committed_per_cycle::8      3692539      4.91%    100.00% # Number of insts commited each cycle
system.switch_cpus0.commit.committed_per_cycle::overflows            0      0.00%    100.00% # Number of insts commited each cycle
system.switch_cpus0.commit.committed_per_cycle::min_value            0                       # Number of insts commited each cycle
system.switch_cpus0.commit.committed_per_cycle::max_value            8                       # Number of insts commited each cycle
system.switch_cpus0.commit.committed_per_cycle::total     75130388                       # Number of insts commited each cycle
system.switch_cpus0.commit.committedInsts    100000000                       # Number of instructions committed
system.switch_cpus0.commit.committedOps     122421920                       # Number of ops (including micro ops) committed
system.switch_cpus0.commit.swp_count                0                       # Number of s/w prefetches committed
system.switch_cpus0.commit.refs              19953799                       # Number of memory references committed
system.switch_cpus0.commit.loads             12212129                       # Number of loads committed
system.switch_cpus0.commit.membars              16022                       # Number of memory barriers committed
system.switch_cpus0.commit.branches          17573934                       # Number of branches committed
system.switch_cpus0.commit.fp_insts                 0                       # Number of committed floating point instructions.
system.switch_cpus0.commit.int_insts        110146126                       # Number of committed integer instructions.
system.switch_cpus0.commit.function_calls      2413416                       # Number of function calls committed.
system.switch_cpus0.commit.bw_lim_events      3692539                       # number cycles where commit BW limit reached
system.switch_cpus0.commit.bw_limited               0                       # number of insts not committed due to BW limits
system.switch_cpus0.rob.rob_reads           255497843                       # The number of ROB reads
system.switch_cpus0.rob.rob_writes          376891484                       # The number of ROB writes
system.switch_cpus0.timesIdled                  38266                       # Number of times that the entire CPU went into an idle state and unscheduled itself
system.switch_cpus0.idleCycles                1577842                       # Total number of cycles that the CPU has spent unscheduled due to idling
system.switch_cpus0.committedInsts          100000000                       # Number of Instructions Simulated
system.switch_cpus0.committedOps            122421920                       # Number of Ops (including micro ops) Simulated
system.switch_cpus0.committedInsts_total    100000000                       # Number of Instructions Simulated
system.switch_cpus0.cpi                      0.854714                       # CPI: Cycles Per Instruction
system.switch_cpus0.cpi_total                0.854714                       # CPI: Total CPI of All Threads
system.switch_cpus0.ipc                      1.169983                       # IPC: Instructions Per Cycle
system.switch_cpus0.ipc_total                1.169983                       # IPC: Total IPC of All Threads
system.switch_cpus0.int_regfile_reads       655766695                       # number of integer regfile reads
system.switch_cpus0.int_regfile_writes      197093636                       # number of integer regfile writes
system.switch_cpus0.misc_regfile_reads      189529483                       # number of misc regfile reads
system.switch_cpus0.misc_regfile_writes         32044                       # number of misc regfile writes
system.switch_cpus1.dtb.inst_hits                   0                       # ITB inst hits
system.switch_cpus1.dtb.inst_misses                 0                       # ITB inst misses
system.switch_cpus1.dtb.read_hits                   0                       # DTB read hits
system.switch_cpus1.dtb.read_misses                 0                       # DTB read misses
system.switch_cpus1.dtb.write_hits                  0                       # DTB write hits
system.switch_cpus1.dtb.write_misses                0                       # DTB write misses
system.switch_cpus1.dtb.flush_tlb                   0                       # Number of times complete TLB was flushed
system.switch_cpus1.dtb.flush_tlb_mva               0                       # Number of times TLB was flushed by MVA
system.switch_cpus1.dtb.flush_tlb_mva_asid            0                       # Number of times TLB was flushed by MVA & ASID
system.switch_cpus1.dtb.flush_tlb_asid              0                       # Number of times TLB was flushed by ASID
system.switch_cpus1.dtb.flush_entries               0                       # Number of entries that have been flushed from TLB
system.switch_cpus1.dtb.align_faults                0                       # Number of TLB faults due to alignment restrictions
system.switch_cpus1.dtb.prefetch_faults             0                       # Number of TLB faults due to prefetch
system.switch_cpus1.dtb.domain_faults               0                       # Number of TLB faults due to domain restrictions
system.switch_cpus1.dtb.perms_faults                0                       # Number of TLB faults due to permissions restrictions
system.switch_cpus1.dtb.read_accesses               0                       # DTB read accesses
system.switch_cpus1.dtb.write_accesses              0                       # DTB write accesses
system.switch_cpus1.dtb.inst_accesses               0                       # ITB inst accesses
system.switch_cpus1.dtb.hits                        0                       # DTB hits
system.switch_cpus1.dtb.misses                      0                       # DTB misses
system.switch_cpus1.dtb.accesses                    0                       # DTB accesses
system.switch_cpus1.itb.inst_hits                   0                       # ITB inst hits
system.switch_cpus1.itb.inst_misses                 0                       # ITB inst misses
system.switch_cpus1.itb.read_hits                   0                       # DTB read hits
system.switch_cpus1.itb.read_misses                 0                       # DTB read misses
system.switch_cpus1.itb.write_hits                  0                       # DTB write hits
system.switch_cpus1.itb.write_misses                0                       # DTB write misses
system.switch_cpus1.itb.flush_tlb                   0                       # Number of times complete TLB was flushed
system.switch_cpus1.itb.flush_tlb_mva               0                       # Number of times TLB was flushed by MVA
system.switch_cpus1.itb.flush_tlb_mva_asid            0                       # Number of times TLB was flushed by MVA & ASID
system.switch_cpus1.itb.flush_tlb_asid              0                       # Number of times TLB was flushed by ASID
system.switch_cpus1.itb.flush_entries               0                       # Number of entries that have been flushed from TLB
system.switch_cpus1.itb.align_faults                0                       # Number of TLB faults due to alignment restrictions
system.switch_cpus1.itb.prefetch_faults             0                       # Number of TLB faults due to prefetch
system.switch_cpus1.itb.domain_faults               0                       # Number of TLB faults due to domain restrictions
system.switch_cpus1.itb.perms_faults                0                       # Number of TLB faults due to permissions restrictions
system.switch_cpus1.itb.read_accesses               0                       # DTB read accesses
system.switch_cpus1.itb.write_accesses              0                       # DTB write accesses
system.switch_cpus1.itb.inst_accesses               0                       # ITB inst accesses
system.switch_cpus1.itb.hits                        0                       # DTB hits
system.switch_cpus1.itb.misses                      0                       # DTB misses
system.switch_cpus1.itb.accesses                    0                       # DTB accesses
system.cpu1.workload.num_syscalls                   0                       # Number of system calls
system.switch_cpus1.numCycles                85471352                       # number of cpu cycles simulated
system.switch_cpus1.numWorkItemsStarted             0                       # number of work items this cpu started
system.switch_cpus1.numWorkItemsCompleted            0                       # number of work items this cpu completed
system.switch_cpus1.BPredUnit.lookups        31629150                       # Number of BP lookups
system.switch_cpus1.BPredUnit.condPredicted     25787466                       # Number of conditional branches predicted
system.switch_cpus1.BPredUnit.condIncorrect      2112615                       # Number of conditional branches incorrect
system.switch_cpus1.BPredUnit.BTBLookups     13402009                       # Number of BTB lookups
system.switch_cpus1.BPredUnit.BTBHits        12366375                       # Number of BTB hits
system.switch_cpus1.BPredUnit.BTBCorrect            0                       # Number of correct BTB predictions (this stat may not work properly.
system.switch_cpus1.BPredUnit.usedRAS         3410227                       # Number of times the RAS was used to get a target.
system.switch_cpus1.BPredUnit.RASInCorrect        93640                       # Number of incorrect RAS predictions.
system.switch_cpus1.fetch.icacheStallCycles     31635857                       # Number of cycles fetch is stalled on an Icache miss
system.switch_cpus1.fetch.Insts             173675653                       # Number of instructions fetch has processed
system.switch_cpus1.fetch.Branches           31629150                       # Number of branches that fetch encountered
system.switch_cpus1.fetch.predictedBranches     15776602                       # Number of branches that fetch has predicted taken
system.switch_cpus1.fetch.Cycles             38595122                       # Number of cycles fetch has run and was not squashing or blocked
system.switch_cpus1.fetch.SquashCycles       11226594                       # Number of cycles fetch has spent squashing
system.switch_cpus1.fetch.BlockedCycles       5139900                       # Number of cycles fetch has spent blocked
system.switch_cpus1.fetch.PendingTrapStallCycles           20                       # Number of stall cycles due to pending traps
system.switch_cpus1.fetch.CacheLines         15620127                       # Number of cache lines fetched
system.switch_cpus1.fetch.IcacheSquashes      1027518                       # Number of outstanding Icache misses that were squashed
system.switch_cpus1.fetch.rateDist::samples     84458850                       # Number of instructions fetched each cycle (Total)
system.switch_cpus1.fetch.rateDist::mean     2.548874                       # Number of instructions fetched each cycle (Total)
system.switch_cpus1.fetch.rateDist::stdev     3.295500                       # Number of instructions fetched each cycle (Total)
system.switch_cpus1.fetch.rateDist::underflows            0      0.00%      0.00% # Number of instructions fetched each cycle (Total)
system.switch_cpus1.fetch.rateDist::0        45863728     54.30%     54.30% # Number of instructions fetched each cycle (Total)
system.switch_cpus1.fetch.rateDist::1         2552789      3.02%     57.33% # Number of instructions fetched each cycle (Total)
system.switch_cpus1.fetch.rateDist::2         4781889      5.66%     62.99% # Number of instructions fetched each cycle (Total)
system.switch_cpus1.fetch.rateDist::3         4753441      5.63%     68.62% # Number of instructions fetched each cycle (Total)
system.switch_cpus1.fetch.rateDist::4         2949554      3.49%     72.11% # Number of instructions fetched each cycle (Total)
system.switch_cpus1.fetch.rateDist::5         2347403      2.78%     74.89% # Number of instructions fetched each cycle (Total)
system.switch_cpus1.fetch.rateDist::6         1469919      1.74%     76.63% # Number of instructions fetched each cycle (Total)
system.switch_cpus1.fetch.rateDist::7         1377710      1.63%     78.26% # Number of instructions fetched each cycle (Total)
system.switch_cpus1.fetch.rateDist::8        18362417     21.74%    100.00% # Number of instructions fetched each cycle (Total)
system.switch_cpus1.fetch.rateDist::overflows            0      0.00%    100.00% # Number of instructions fetched each cycle (Total)
system.switch_cpus1.fetch.rateDist::min_value            0                       # Number of instructions fetched each cycle (Total)
system.switch_cpus1.fetch.rateDist::max_value            8                       # Number of instructions fetched each cycle (Total)
system.switch_cpus1.fetch.rateDist::total     84458850                       # Number of instructions fetched each cycle (Total)
system.switch_cpus1.fetch.branchRate         0.370056                       # Number of branch fetches per cycle
system.switch_cpus1.fetch.rate               2.031975                       # Number of inst fetches per cycle
system.switch_cpus1.decode.IdleCycles        32991006                       # Number of cycles decode is idle
system.switch_cpus1.decode.BlockedCycles      5080527                       # Number of cycles decode is blocked
system.switch_cpus1.decode.RunCycles         37071378                       # Number of cycles decode is running
system.switch_cpus1.decode.UnblockCycles       228218                       # Number of cycles decode is unblocking
system.switch_cpus1.decode.SquashCycles       9087714                       # Number of cycles decode is squashing
system.switch_cpus1.decode.BranchResolved      5348758                       # Number of times decode resolved a branch
system.switch_cpus1.decode.BranchMispred          253                       # Number of times decode detected a branch misprediction
system.switch_cpus1.decode.DecodedInsts     208402321                       # Number of instructions handled by decode
system.switch_cpus1.decode.SquashedInsts         1355                       # Number of squashed instructions handled by decode
system.switch_cpus1.rename.SquashCycles       9087714                       # Number of cycles rename is squashing
system.switch_cpus1.rename.IdleCycles        35388973                       # Number of cycles rename is idle
system.switch_cpus1.rename.BlockCycles         992255                       # Number of cycles rename is blocking
system.switch_cpus1.rename.serializeStallCycles       809482                       # count of cycles rename stalled for serializing inst
system.switch_cpus1.rename.RunCycles         34855684                       # Number of cycles rename is running
system.switch_cpus1.rename.UnblockCycles      3324736                       # Number of cycles rename is unblocking
system.switch_cpus1.rename.RenamedInsts     200928333                       # Number of instructions processed by rename
system.switch_cpus1.rename.ROBFullEvents           32                       # Number of times rename has blocked due to ROB full
system.switch_cpus1.rename.IQFullEvents       1382771                       # Number of times rename has blocked due to IQ full
system.switch_cpus1.rename.LSQFullEvents      1018075                       # Number of times rename has blocked due to LSQ full
system.switch_cpus1.rename.RenamedOperands    282121642                       # Number of destination operands rename has renamed
system.switch_cpus1.rename.RenameLookups    937356173                       # Number of register rename lookups that rename has made
system.switch_cpus1.rename.int_rename_lookups    937356173                       # Number of integer rename lookups
system.switch_cpus1.rename.CommittedMaps    174504574                       # Number of HB maps that are committed
system.switch_cpus1.rename.UndoneMaps       107617054                       # Number of HB maps that are undone due to squashing
system.switch_cpus1.rename.serializingInsts        35752                       # count of serializing insts renamed
system.switch_cpus1.rename.tempSerializingInsts        17182                       # count of temporary serializing insts renamed
system.switch_cpus1.rename.skidInsts          9258994                       # count of insts added to the skid buffer
system.switch_cpus1.memDep0.insertedLoads     18605806                       # Number of loads inserted to the mem dependence unit.
system.switch_cpus1.memDep0.insertedStores      9483167                       # Number of stores inserted to the mem dependence unit.
system.switch_cpus1.memDep0.conflictingLoads       118393                       # Number of conflicting loads.
system.switch_cpus1.memDep0.conflictingStores      3353496                       # Number of conflicting stores.
system.switch_cpus1.iq.iqInstsAdded         189456307                       # Number of instructions added to the IQ (excludes non-spec)
system.switch_cpus1.iq.iqNonSpecInstsAdded        34364                       # Number of non-speculative instructions added to the IQ
system.switch_cpus1.iq.iqInstsIssued        150895490                       # Number of instructions issued
system.switch_cpus1.iq.iqSquashedInstsIssued       294204                       # Number of squashed instructions issued
system.switch_cpus1.iq.iqSquashedInstsExamined     64079658                       # Number of squashed instructions iterated over during squash; mainly for profiling
system.switch_cpus1.iq.iqSquashedOperandsExamined    196051665                       # Number of squashed operands that are examined and possibly removed from graph
system.switch_cpus1.iq.issued_per_cycle::samples     84458850                       # Number of insts issued each cycle
system.switch_cpus1.iq.issued_per_cycle::mean     1.786615                       # Number of insts issued each cycle
system.switch_cpus1.iq.issued_per_cycle::stdev     1.896739                       # Number of insts issued each cycle
system.switch_cpus1.iq.issued_per_cycle::underflows            0      0.00%      0.00% # Number of insts issued each cycle
system.switch_cpus1.iq.issued_per_cycle::0     28741555     34.03%     34.03% # Number of insts issued each cycle
system.switch_cpus1.iq.issued_per_cycle::1     18394670     21.78%     55.81% # Number of insts issued each cycle
system.switch_cpus1.iq.issued_per_cycle::2     12224066     14.47%     70.28% # Number of insts issued each cycle
system.switch_cpus1.iq.issued_per_cycle::3      7971446      9.44%     79.72% # Number of insts issued each cycle
system.switch_cpus1.iq.issued_per_cycle::4      8389676      9.93%     89.65% # Number of insts issued each cycle
system.switch_cpus1.iq.issued_per_cycle::5      4061918      4.81%     94.46% # Number of insts issued each cycle
system.switch_cpus1.iq.issued_per_cycle::6      3202205      3.79%     98.26% # Number of insts issued each cycle
system.switch_cpus1.iq.issued_per_cycle::7       729686      0.86%     99.12% # Number of insts issued each cycle
system.switch_cpus1.iq.issued_per_cycle::8       743628      0.88%    100.00% # Number of insts issued each cycle
system.switch_cpus1.iq.issued_per_cycle::overflows            0      0.00%    100.00% # Number of insts issued each cycle
system.switch_cpus1.iq.issued_per_cycle::min_value            0                       # Number of insts issued each cycle
system.switch_cpus1.iq.issued_per_cycle::max_value            8                       # Number of insts issued each cycle
system.switch_cpus1.iq.issued_per_cycle::total     84458850                       # Number of insts issued each cycle
system.switch_cpus1.iq.fu_full::No_OpClass            0      0.00%      0.00% # attempts to use FU when none available
system.switch_cpus1.iq.fu_full::IntAlu         940385     72.50%     72.50% # attempts to use FU when none available
system.switch_cpus1.iq.fu_full::IntMult             0      0.00%     72.50% # attempts to use FU when none available
system.switch_cpus1.iq.fu_full::IntDiv              0      0.00%     72.50% # attempts to use FU when none available
system.switch_cpus1.iq.fu_full::FloatAdd            0      0.00%     72.50% # attempts to use FU when none available
system.switch_cpus1.iq.fu_full::FloatCmp            0      0.00%     72.50% # attempts to use FU when none available
system.switch_cpus1.iq.fu_full::FloatCvt            0      0.00%     72.50% # attempts to use FU when none available
system.switch_cpus1.iq.fu_full::FloatMult            0      0.00%     72.50% # attempts to use FU when none available
system.switch_cpus1.iq.fu_full::FloatDiv            0      0.00%     72.50% # attempts to use FU when none available
system.switch_cpus1.iq.fu_full::FloatSqrt            0      0.00%     72.50% # attempts to use FU when none available
system.switch_cpus1.iq.fu_full::SimdAdd             0      0.00%     72.50% # attempts to use FU when none available
system.switch_cpus1.iq.fu_full::SimdAddAcc            0      0.00%     72.50% # attempts to use FU when none available
system.switch_cpus1.iq.fu_full::SimdAlu             0      0.00%     72.50% # attempts to use FU when none available
system.switch_cpus1.iq.fu_full::SimdCmp             0      0.00%     72.50% # attempts to use FU when none available
system.switch_cpus1.iq.fu_full::SimdCvt             0      0.00%     72.50% # attempts to use FU when none available
system.switch_cpus1.iq.fu_full::SimdMisc            0      0.00%     72.50% # attempts to use FU when none available
system.switch_cpus1.iq.fu_full::SimdMult            0      0.00%     72.50% # attempts to use FU when none available
system.switch_cpus1.iq.fu_full::SimdMultAcc            0      0.00%     72.50% # attempts to use FU when none available
system.switch_cpus1.iq.fu_full::SimdShift            0      0.00%     72.50% # attempts to use FU when none available
system.switch_cpus1.iq.fu_full::SimdShiftAcc            0      0.00%     72.50% # attempts to use FU when none available
system.switch_cpus1.iq.fu_full::SimdSqrt            0      0.00%     72.50% # attempts to use FU when none available
system.switch_cpus1.iq.fu_full::SimdFloatAdd            0      0.00%     72.50% # attempts to use FU when none available
system.switch_cpus1.iq.fu_full::SimdFloatAlu            0      0.00%     72.50% # attempts to use FU when none available
system.switch_cpus1.iq.fu_full::SimdFloatCmp            0      0.00%     72.50% # attempts to use FU when none available
system.switch_cpus1.iq.fu_full::SimdFloatCvt            0      0.00%     72.50% # attempts to use FU when none available
system.switch_cpus1.iq.fu_full::SimdFloatDiv            0      0.00%     72.50% # attempts to use FU when none available
system.switch_cpus1.iq.fu_full::SimdFloatMisc            0      0.00%     72.50% # attempts to use FU when none available
system.switch_cpus1.iq.fu_full::SimdFloatMult            0      0.00%     72.50% # attempts to use FU when none available
system.switch_cpus1.iq.fu_full::SimdFloatMultAcc            0      0.00%     72.50% # attempts to use FU when none available
system.switch_cpus1.iq.fu_full::SimdFloatSqrt            0      0.00%     72.50% # attempts to use FU when none available
system.switch_cpus1.iq.fu_full::MemRead        179917     13.87%     86.37% # attempts to use FU when none available
system.switch_cpus1.iq.fu_full::MemWrite       176859     13.63%    100.00% # attempts to use FU when none available
system.switch_cpus1.iq.fu_full::IprAccess            0      0.00%    100.00% # attempts to use FU when none available
system.switch_cpus1.iq.fu_full::InstPrefetch            0      0.00%    100.00% # attempts to use FU when none available
system.switch_cpus1.iq.FU_type_0::No_OpClass            0      0.00%      0.00% # Type of FU issued
system.switch_cpus1.iq.FU_type_0::IntAlu    126224753     83.65%     83.65% # Type of FU issued
system.switch_cpus1.iq.FU_type_0::IntMult      2027522      1.34%     84.99% # Type of FU issued
system.switch_cpus1.iq.FU_type_0::IntDiv            0      0.00%     84.99% # Type of FU issued
system.switch_cpus1.iq.FU_type_0::FloatAdd            0      0.00%     84.99% # Type of FU issued
system.switch_cpus1.iq.FU_type_0::FloatCmp            0      0.00%     84.99% # Type of FU issued
system.switch_cpus1.iq.FU_type_0::FloatCvt            0      0.00%     84.99% # Type of FU issued
system.switch_cpus1.iq.FU_type_0::FloatMult            0      0.00%     84.99% # Type of FU issued
system.switch_cpus1.iq.FU_type_0::FloatDiv            0      0.00%     84.99% # Type of FU issued
system.switch_cpus1.iq.FU_type_0::FloatSqrt            0      0.00%     84.99% # Type of FU issued
system.switch_cpus1.iq.FU_type_0::SimdAdd            0      0.00%     84.99% # Type of FU issued
system.switch_cpus1.iq.FU_type_0::SimdAddAcc            0      0.00%     84.99% # Type of FU issued
system.switch_cpus1.iq.FU_type_0::SimdAlu            0      0.00%     84.99% # Type of FU issued
system.switch_cpus1.iq.FU_type_0::SimdCmp            0      0.00%     84.99% # Type of FU issued
system.switch_cpus1.iq.FU_type_0::SimdCvt            0      0.00%     84.99% # Type of FU issued
system.switch_cpus1.iq.FU_type_0::SimdMisc            0      0.00%     84.99% # Type of FU issued
system.switch_cpus1.iq.FU_type_0::SimdMult            0      0.00%     84.99% # Type of FU issued
system.switch_cpus1.iq.FU_type_0::SimdMultAcc            0      0.00%     84.99% # Type of FU issued
system.switch_cpus1.iq.FU_type_0::SimdShift            0      0.00%     84.99% # Type of FU issued
system.switch_cpus1.iq.FU_type_0::SimdShiftAcc            0      0.00%     84.99% # Type of FU issued
system.switch_cpus1.iq.FU_type_0::SimdSqrt            0      0.00%     84.99% # Type of FU issued
system.switch_cpus1.iq.FU_type_0::SimdFloatAdd            0      0.00%     84.99% # Type of FU issued
system.switch_cpus1.iq.FU_type_0::SimdFloatAlu            0      0.00%     84.99% # Type of FU issued
system.switch_cpus1.iq.FU_type_0::SimdFloatCmp            0      0.00%     84.99% # Type of FU issued
system.switch_cpus1.iq.FU_type_0::SimdFloatCvt            0      0.00%     84.99% # Type of FU issued
system.switch_cpus1.iq.FU_type_0::SimdFloatDiv            0      0.00%     84.99% # Type of FU issued
system.switch_cpus1.iq.FU_type_0::SimdFloatMisc        17182      0.01%     85.01% # Type of FU issued
system.switch_cpus1.iq.FU_type_0::SimdFloatMult            0      0.00%     85.01% # Type of FU issued
system.switch_cpus1.iq.FU_type_0::SimdFloatMultAcc            0      0.00%     85.01% # Type of FU issued
system.switch_cpus1.iq.FU_type_0::SimdFloatSqrt            0      0.00%     85.01% # Type of FU issued
system.switch_cpus1.iq.FU_type_0::MemRead     14595305      9.67%     94.68% # Type of FU issued
system.switch_cpus1.iq.FU_type_0::MemWrite      8030728      5.32%    100.00% # Type of FU issued
system.switch_cpus1.iq.FU_type_0::IprAccess            0      0.00%    100.00% # Type of FU issued
system.switch_cpus1.iq.FU_type_0::InstPrefetch            0      0.00%    100.00% # Type of FU issued
system.switch_cpus1.iq.FU_type_0::total     150895490                       # Type of FU issued
system.switch_cpus1.iq.rate                  1.765451                       # Inst issue rate
system.switch_cpus1.iq.fu_busy_cnt            1297161                       # FU busy when requested
system.switch_cpus1.iq.fu_busy_rate          0.008596                       # FU busy rate (busy events/executed inst)
system.switch_cpus1.iq.int_inst_queue_reads    387841195                       # Number of integer instruction queue reads
system.switch_cpus1.iq.int_inst_queue_writes    253570677                       # Number of integer instruction queue writes
system.switch_cpus1.iq.int_inst_queue_wakeup_accesses    147452093                       # Number of integer instruction queue wakeup accesses
system.switch_cpus1.iq.fp_inst_queue_reads            0                       # Number of floating instruction queue reads
system.switch_cpus1.iq.fp_inst_queue_writes            0                       # Number of floating instruction queue writes
system.switch_cpus1.iq.fp_inst_queue_wakeup_accesses            0                       # Number of floating instruction queue wakeup accesses
system.switch_cpus1.iq.int_alu_accesses     152192651                       # Number of integer alu accesses
system.switch_cpus1.iq.fp_alu_accesses              0                       # Number of floating point alu accesses
system.switch_cpus1.iew.lsq.thread0.forwLoads       470847                       # Number of loads that had data forwarded from stores
system.switch_cpus1.iew.lsq.thread0.invAddrLoads            0                       # Number of loads ignored due to an invalid address
system.switch_cpus1.iew.lsq.thread0.squashedLoads      7229774                       # Number of loads squashed
system.switch_cpus1.iew.lsq.thread0.ignoredResponses         2033                       # Number of memory responses ignored because the instruction is squashed
system.switch_cpus1.iew.lsq.thread0.memOrderViolation          349                       # Number of memory ordering violations
system.switch_cpus1.iew.lsq.thread0.squashedStores      2276524                       # Number of stores squashed
system.switch_cpus1.iew.lsq.thread0.invAddrSwpfs            0                       # Number of software prefetches ignored due to an invalid address
system.switch_cpus1.iew.lsq.thread0.blockedLoads            0                       # Number of blocked loads due to partial load-store forwarding
system.switch_cpus1.iew.lsq.thread0.rescheduledLoads            0                       # Number of loads that were rescheduled
system.switch_cpus1.iew.lsq.thread0.cacheBlocked            0                       # Number of times an access to memory failed due to the cache being blocked
system.switch_cpus1.iew.iewIdleCycles               0                       # Number of cycles IEW is idle
system.switch_cpus1.iew.iewSquashCycles       9087714                       # Number of cycles IEW is squashing
system.switch_cpus1.iew.iewBlockCycles         505044                       # Number of cycles IEW is blocking
system.switch_cpus1.iew.iewUnblockCycles        90420                       # Number of cycles IEW is unblocking
system.switch_cpus1.iew.iewDispatchedInsts    189490674                       # Number of instructions dispatched to IQ
system.switch_cpus1.iew.iewDispSquashedInsts       379329                       # Number of squashed instructions skipped by dispatch
system.switch_cpus1.iew.iewDispLoadInsts     18605806                       # Number of dispatched load instructions
system.switch_cpus1.iew.iewDispStoreInsts      9483167                       # Number of dispatched store instructions
system.switch_cpus1.iew.iewDispNonSpecInsts        17182                       # Number of dispatched non-speculative instructions
system.switch_cpus1.iew.iewIQFullEvents         71116                       # Number of times the IQ has become full, causing a stall
system.switch_cpus1.iew.iewLSQFullEvents            0                       # Number of times the LSQ has become full, causing a stall
system.switch_cpus1.iew.memOrderViolationEvents          349                       # Number of memory order violations
system.switch_cpus1.iew.predictedTakenIncorrect      1320912                       # Number of branches that were predicted taken incorrectly
system.switch_cpus1.iew.predictedNotTakenIncorrect      1174886                       # Number of branches that were predicted not taken incorrectly
system.switch_cpus1.iew.branchMispredicts      2495798                       # Number of branch mispredicts detected at execute
system.switch_cpus1.iew.iewExecutedInsts    148904267                       # Number of executed instructions
system.switch_cpus1.iew.iewExecLoadInsts     13927940                       # Number of load instructions executed
system.switch_cpus1.iew.iewExecSquashedInsts      1991223                       # Number of squashed instructions skipped in execute
system.switch_cpus1.iew.exec_swp                    0                       # number of swp insts executed
system.switch_cpus1.iew.exec_nop                    3                       # number of nop insts executed
system.switch_cpus1.iew.exec_refs            21770006                       # number of memory reference insts executed
system.switch_cpus1.iew.exec_branches        21114123                       # Number of branches executed
system.switch_cpus1.iew.exec_stores           7842066                       # Number of stores executed
system.switch_cpus1.iew.exec_rate            1.742154                       # Inst execution rate
system.switch_cpus1.iew.wb_sent             147498463                       # cumulative count of insts sent to commit
system.switch_cpus1.iew.wb_count            147452093                       # cumulative count of insts written-back
system.switch_cpus1.iew.wb_producers         93986810                       # num instructions producing a value
system.switch_cpus1.iew.wb_consumers        269732128                       # num instructions consuming a value
system.switch_cpus1.iew.wb_penalized                0                       # number of instrctions required to write to 'other' IQ
system.switch_cpus1.iew.wb_rate              1.725164                       # insts written-back per cycle
system.switch_cpus1.iew.wb_fanout            0.348445                       # average fanout of values written-back
system.switch_cpus1.iew.wb_penalized_rate            0                       # fraction of instructions written-back that wrote to 'other' IQ
system.switch_cpus1.commit.commitCommittedInsts    101631106                       # The number of committed instructions
system.switch_cpus1.commit.commitCommittedOps    125137703                       # The number of committed instructions
system.switch_cpus1.commit.commitSquashedInsts     64353426                       # The number of squashed insts skipped by commit
system.switch_cpus1.commit.commitNonSpecStalls        34364                       # The number of times commit has been forced to stall to communicate backwards
system.switch_cpus1.commit.branchMispredicts      2138153                       # The number of times a branch was mispredicted
system.switch_cpus1.commit.committed_per_cycle::samples     75371136                       # Number of insts commited each cycle
[...]
system.cpu3.icache.ReadReq_avg_miss_latency::total 247498.352941                       # average ReadReq miss latency
system.cpu3.icache.demand_avg_miss_latency::switch_cpus3.inst 247498.352941                       # average overall miss latency
system.cpu3.icache.demand_avg_miss_latency::total 247498.352941                       # average overall miss latency
system.cpu3.icache.overall_avg_miss_latency::switch_cpus3.inst 247498.352941                       # average overall miss latency
system.cpu3.icache.overall_avg_miss_latency::total 247498.352941                       # average overall miss latency
system.cpu3.icache.blocked_cycles::no_mshrs            0                       # number of cycles access was blocked
system.cpu3.icache.blocked_cycles::no_targets            0                       # number of cycles access was blocked
system.cpu3.icache.blocked::no_mshrs                0                       # number of cycles access was blocked
system.cpu3.icache.blocked::no_targets              0                       # number of cycles access was blocked
system.cpu3.icache.avg_blocked_cycles::no_mshrs          nan                       # average number of cycles each access was blocked
system.cpu3.icache.avg_blocked_cycles::no_targets          nan                       # average number of cycles each access was blocked
system.cpu3.icache.fast_writes                      0                       # number of fast writes performed
system.cpu3.icache.cache_copies                     0                       # number of cache copies performed
system.cpu3.icache.ReadReq_mshr_hits::switch_cpus3.inst            4                       # number of ReadReq MSHR hits
system.cpu3.icache.ReadReq_mshr_hits::total            4                       # number of ReadReq MSHR hits
system.cpu3.icache.demand_mshr_hits::switch_cpus3.inst            4                       # number of demand (read+write) MSHR hits
system.cpu3.icache.demand_mshr_hits::total            4                       # number of demand (read+write) MSHR hits
system.cpu3.icache.overall_mshr_hits::switch_cpus3.inst            4                       # number of overall MSHR hits
system.cpu3.icache.overall_mshr_hits::total            4                       # number of overall MSHR hits
system.cpu3.icache.ReadReq_mshr_misses::switch_cpus3.inst           13                       # number of ReadReq MSHR misses
system.cpu3.icache.ReadReq_mshr_misses::total           13                       # number of ReadReq MSHR misses
system.cpu3.icache.demand_mshr_misses::switch_cpus3.inst           13                       # number of demand (read+write) MSHR misses
system.cpu3.icache.demand_mshr_misses::total           13                       # number of demand (read+write) MSHR misses
system.cpu3.icache.overall_mshr_misses::switch_cpus3.inst           13                       # number of overall MSHR misses
system.cpu3.icache.overall_mshr_misses::total           13                       # number of overall MSHR misses
system.cpu3.icache.ReadReq_mshr_miss_latency::switch_cpus3.inst      3113949                       # number of ReadReq MSHR miss cycles
system.cpu3.icache.ReadReq_mshr_miss_latency::total      3113949                       # number of ReadReq MSHR miss cycles
system.cpu3.icache.demand_mshr_miss_latency::switch_cpus3.inst      3113949                       # number of demand (read+write) MSHR miss cycles
system.cpu3.icache.demand_mshr_miss_latency::total      3113949                       # number of demand (read+write) MSHR miss cycles
system.cpu3.icache.overall_mshr_miss_latency::switch_cpus3.inst      3113949                       # number of overall MSHR miss cycles
system.cpu3.icache.overall_mshr_miss_latency::total      3113949                       # number of overall MSHR miss cycles
system.cpu3.icache.ReadReq_mshr_miss_rate::switch_cpus3.inst     0.000001                       # mshr miss rate for ReadReq accesses
system.cpu3.icache.ReadReq_mshr_miss_rate::total     0.000001                       # mshr miss rate for ReadReq accesses
system.cpu3.icache.demand_mshr_miss_rate::switch_cpus3.inst     0.000001                       # mshr miss rate for demand accesses
system.cpu3.icache.demand_mshr_miss_rate::total     0.000001                       # mshr miss rate for demand accesses
system.cpu3.icache.overall_mshr_miss_rate::switch_cpus3.inst     0.000001                       # mshr miss rate for overall accesses
system.cpu3.icache.overall_mshr_miss_rate::total     0.000001                       # mshr miss rate for overall accesses
system.cpu3.icache.ReadReq_avg_mshr_miss_latency::switch_cpus3.inst 239534.538462                       # average ReadReq mshr miss latency
system.cpu3.icache.ReadReq_avg_mshr_miss_latency::total 239534.538462                       # average ReadReq mshr miss latency
system.cpu3.icache.demand_avg_mshr_miss_latency::switch_cpus3.inst 239534.538462                       # average overall mshr miss latency
system.cpu3.icache.demand_avg_mshr_miss_latency::total 239534.538462                       # average overall mshr miss latency
system.cpu3.icache.overall_avg_mshr_miss_latency::switch_cpus3.inst 239534.538462                       # average overall mshr miss latency
system.cpu3.icache.overall_avg_mshr_miss_latency::total 239534.538462                       # average overall mshr miss latency
system.cpu3.icache.no_allocate_misses               0                       # Number of misses that were no-allocate
system.cpu3.dcache.replacements                 52470                       # number of replacements
system.cpu3.dcache.tagsinuse                      256                       # Cycle average of tags in use
system.cpu3.dcache.total_refs               174225862                       # Total number of references to valid blocks.
system.cpu3.dcache.sampled_refs                 52726                       # Sample count of references to valid blocks.
system.cpu3.dcache.avg_refs               3304.363350                       # Average number of references to valid blocks.
system.cpu3.dcache.warmup_cycle                     0                       # Cycle when the warmup percentage was hit.
system.cpu3.dcache.occ_blocks::switch_cpus3.data   233.221952                       # Average occupied blocks per requestor
system.cpu3.dcache.occ_blocks::cpu3.data    22.778048                       # Average occupied blocks per requestor
system.cpu3.dcache.occ_percent::switch_cpus3.data     0.911023                       # Average percentage of cache occupancy
system.cpu3.dcache.occ_percent::cpu3.data     0.088977                       # Average percentage of cache occupancy
system.cpu3.dcache.occ_percent::total               1                       # Average percentage of cache occupancy
system.cpu3.dcache.ReadReq_hits::switch_cpus3.data     10495166                       # number of ReadReq hits
system.cpu3.dcache.ReadReq_hits::total       10495166                       # number of ReadReq hits
system.cpu3.dcache.WriteReq_hits::switch_cpus3.data      7227062                       # number of WriteReq hits
system.cpu3.dcache.WriteReq_hits::total       7227062                       # number of WriteReq hits
system.cpu3.dcache.LoadLockedReq_hits::switch_cpus3.data        17703                       # number of LoadLockedReq hits
system.cpu3.dcache.LoadLockedReq_hits::total        17703                       # number of LoadLockedReq hits
system.cpu3.dcache.StoreCondReq_hits::switch_cpus3.data        16770                       # number of StoreCondReq hits
system.cpu3.dcache.StoreCondReq_hits::total        16770                       # number of StoreCondReq hits
system.cpu3.dcache.demand_hits::switch_cpus3.data     17722228                       # number of demand (read+write) hits
system.cpu3.dcache.demand_hits::total        17722228                       # number of demand (read+write) hits
system.cpu3.dcache.overall_hits::switch_cpus3.data     17722228                       # number of overall hits
system.cpu3.dcache.overall_hits::total       17722228                       # number of overall hits
system.cpu3.dcache.ReadReq_misses::switch_cpus3.data       132316                       # number of ReadReq misses
system.cpu3.dcache.ReadReq_misses::total       132316                       # number of ReadReq misses
system.cpu3.dcache.WriteReq_misses::switch_cpus3.data         4489                       # number of WriteReq misses
system.cpu3.dcache.WriteReq_misses::total         4489                       # number of WriteReq misses
system.cpu3.dcache.demand_misses::switch_cpus3.data       136805                       # number of demand (read+write) misses
system.cpu3.dcache.demand_misses::total        136805                       # number of demand (read+write) misses
system.cpu3.dcache.overall_misses::switch_cpus3.data       136805                       # number of overall misses
system.cpu3.dcache.overall_misses::total       136805                       # number of overall misses
system.cpu3.dcache.ReadReq_miss_latency::switch_cpus3.data   4120803602                       # number of ReadReq miss cycles
system.cpu3.dcache.ReadReq_miss_latency::total   4120803602                       # number of ReadReq miss cycles
system.cpu3.dcache.WriteReq_miss_latency::switch_cpus3.data    670296594                       # number of WriteReq miss cycles
system.cpu3.dcache.WriteReq_miss_latency::total    670296594                       # number of WriteReq miss cycles
system.cpu3.dcache.demand_miss_latency::switch_cpus3.data   4791100196                       # number of demand (read+write) miss cycles
system.cpu3.dcache.demand_miss_latency::total   4791100196                       # number of demand (read+write) miss cycles
system.cpu3.dcache.overall_miss_latency::switch_cpus3.data   4791100196                       # number of overall miss cycles
system.cpu3.dcache.overall_miss_latency::total   4791100196                       # number of overall miss cycles
system.cpu3.dcache.ReadReq_accesses::switch_cpus3.data     10627482                       # number of ReadReq accesses(hits+misses)
system.cpu3.dcache.ReadReq_accesses::total     10627482                       # number of ReadReq accesses(hits+misses)
system.cpu3.dcache.WriteReq_accesses::switch_cpus3.data      7231551                       # number of WriteReq accesses(hits+misses)
system.cpu3.dcache.WriteReq_accesses::total      7231551                       # number of WriteReq accesses(hits+misses)
system.cpu3.dcache.LoadLockedReq_accesses::switch_cpus3.data        17703                       # number of LoadLockedReq accesses(hits+misses)
system.cpu3.dcache.LoadLockedReq_accesses::total        17703                       # number of LoadLockedReq accesses(hits+misses)
system.cpu3.dcache.StoreCondReq_accesses::switch_cpus3.data        16770                       # number of StoreCondReq accesses(hits+misses)
system.cpu3.dcache.StoreCondReq_accesses::total        16770                       # number of StoreCondReq accesses(hits+misses)
system.cpu3.dcache.demand_accesses::switch_cpus3.data     17859033                       # number of demand (read+write) accesses
system.cpu3.dcache.demand_accesses::total     17859033                       # number of demand (read+write) accesses
system.cpu3.dcache.overall_accesses::switch_cpus3.data     17859033                       # number of overall (read+write) accesses
system.cpu3.dcache.overall_accesses::total     17859033                       # number of overall (read+write) accesses
system.cpu3.dcache.ReadReq_miss_rate::switch_cpus3.data     0.012450                       # miss rate for ReadReq accesses
system.cpu3.dcache.ReadReq_miss_rate::total     0.012450                       # miss rate for ReadReq accesses
system.cpu3.dcache.WriteReq_miss_rate::switch_cpus3.data     0.000621                       # miss rate for WriteReq accesses
system.cpu3.dcache.WriteReq_miss_rate::total     0.000621                       # miss rate for WriteReq accesses
system.cpu3.dcache.demand_miss_rate::switch_cpus3.data     0.007660                       # miss rate for demand accesses
system.cpu3.dcache.demand_miss_rate::total     0.007660                       # miss rate for demand accesses
system.cpu3.dcache.overall_miss_rate::switch_cpus3.data     0.007660                       # miss rate for overall accesses
system.cpu3.dcache.overall_miss_rate::total     0.007660                       # miss rate for overall accesses
system.cpu3.dcache.ReadReq_avg_miss_latency::switch_cpus3.data 31143.653088                       # average ReadReq miss latency
system.cpu3.dcache.ReadReq_avg_miss_latency::total 31143.653088                       # average ReadReq miss latency
system.cpu3.dcache.WriteReq_avg_miss_latency::switch_cpus3.data 149319.802629                       # average WriteReq miss latency
system.cpu3.dcache.WriteReq_avg_miss_latency::total 149319.802629                       # average WriteReq miss latency
system.cpu3.dcache.demand_avg_miss_latency::switch_cpus3.data 35021.382230                       # average overall miss latency
system.cpu3.dcache.demand_avg_miss_latency::total 35021.382230                       # average overall miss latency
system.cpu3.dcache.overall_avg_miss_latency::switch_cpus3.data 35021.382230                       # average overall miss latency
system.cpu3.dcache.overall_avg_miss_latency::total 35021.382230                       # average overall miss latency
system.cpu3.dcache.blocked_cycles::no_mshrs            0                       # number of cycles access was blocked
system.cpu3.dcache.blocked_cycles::no_targets      1974665                       # number of cycles access was blocked
system.cpu3.dcache.blocked::no_mshrs                0                       # number of cycles access was blocked
system.cpu3.dcache.blocked::no_targets             18                       # number of cycles access was blocked
system.cpu3.dcache.avg_blocked_cycles::no_mshrs          nan                       # average number of cycles each access was blocked
system.cpu3.dcache.avg_blocked_cycles::no_targets 109703.611111                       # average number of cycles each access was blocked
system.cpu3.dcache.fast_writes                      0                       # number of fast writes performed
system.cpu3.dcache.cache_copies                     0                       # number of cache copies performed
system.cpu3.dcache.writebacks::writebacks        28027                       # number of writebacks
system.cpu3.dcache.writebacks::total            28027                       # number of writebacks
system.cpu3.dcache.ReadReq_mshr_hits::switch_cpus3.data        79848                       # number of ReadReq MSHR hits
system.cpu3.dcache.ReadReq_mshr_hits::total        79848                       # number of ReadReq MSHR hits
system.cpu3.dcache.WriteReq_mshr_hits::switch_cpus3.data         4487                       # number of WriteReq MSHR hits
system.cpu3.dcache.WriteReq_mshr_hits::total         4487                       # number of WriteReq MSHR hits
system.cpu3.dcache.demand_mshr_hits::switch_cpus3.data        84335                       # number of demand (read+write) MSHR hits
system.cpu3.dcache.demand_mshr_hits::total        84335                       # number of demand (read+write) MSHR hits
system.cpu3.dcache.overall_mshr_hits::switch_cpus3.data        84335                       # number of overall MSHR hits
system.cpu3.dcache.overall_mshr_hits::total        84335                       # number of overall MSHR hits
system.cpu3.dcache.ReadReq_mshr_misses::switch_cpus3.data        52468                       # number of ReadReq MSHR misses
system.cpu3.dcache.ReadReq_mshr_misses::total        52468                       # number of ReadReq MSHR misses
system.cpu3.dcache.WriteReq_mshr_misses::switch_cpus3.data            2                       # number of WriteReq MSHR misses
system.cpu3.dcache.WriteReq_mshr_misses::total            2                       # number of WriteReq MSHR misses
system.cpu3.dcache.demand_mshr_misses::switch_cpus3.data        52470                       # number of demand (read+write) MSHR misses
system.cpu3.dcache.demand_mshr_misses::total        52470                       # number of demand (read+write) MSHR misses
system.cpu3.dcache.overall_mshr_misses::switch_cpus3.data        52470                       # number of overall MSHR misses
system.cpu3.dcache.overall_mshr_misses::total        52470                       # number of overall MSHR misses
system.cpu3.dcache.ReadReq_mshr_miss_latency::switch_cpus3.data    898379008                       # number of ReadReq MSHR miss cycles
system.cpu3.dcache.ReadReq_mshr_miss_latency::total    898379008                       # number of ReadReq MSHR miss cycles
system.cpu3.dcache.WriteReq_mshr_miss_latency::switch_cpus3.data       215474                       # number of WriteReq MSHR miss cycles
system.cpu3.dcache.WriteReq_mshr_miss_latency::total       215474                       # number of WriteReq MSHR miss cycles
system.cpu3.dcache.demand_mshr_miss_latency::switch_cpus3.data    898594482                       # number of demand (read+write) MSHR miss cycles
system.cpu3.dcache.demand_mshr_miss_latency::total    898594482                       # number of demand (read+write) MSHR miss cycles
system.cpu3.dcache.overall_mshr_miss_latency::switch_cpus3.data    898594482                       # number of overall MSHR miss cycles
system.cpu3.dcache.overall_mshr_miss_latency::total    898594482                       # number of overall MSHR miss cycles
system.cpu3.dcache.ReadReq_mshr_miss_rate::switch_cpus3.data     0.004937                       # mshr miss rate for ReadReq accesses
system.cpu3.dcache.ReadReq_mshr_miss_rate::total     0.004937                       # mshr miss rate for ReadReq accesses
system.cpu3.dcache.WriteReq_mshr_miss_rate::switch_cpus3.data     0.000000                       # mshr miss rate for WriteReq accesses
system.cpu3.dcache.WriteReq_mshr_miss_rate::total     0.000000                       # mshr miss rate for WriteReq accesses
system.cpu3.dcache.demand_mshr_miss_rate::switch_cpus3.data     0.002938                       # mshr miss rate for demand accesses
system.cpu3.dcache.demand_mshr_miss_rate::total     0.002938                       # mshr miss rate for demand accesses
system.cpu3.dcache.overall_mshr_miss_rate::switch_cpus3.data     0.002938                       # mshr miss rate for overall accesses
system.cpu3.dcache.overall_mshr_miss_rate::total     0.002938                       # mshr miss rate for overall accesses
system.cpu3.dcache.ReadReq_avg_mshr_miss_latency::switch_cpus3.data 17122.417626                       # average ReadReq mshr miss latency
system.cpu3.dcache.ReadReq_avg_mshr_miss_latency::total 17122.417626                       # average ReadReq mshr miss latency
system.cpu3.dcache.WriteReq_avg_mshr_miss_latency::switch_cpus3.data       107737                       # average WriteReq mshr miss latency
system.cpu3.dcache.WriteReq_avg_mshr_miss_latency::total       107737                       # average WriteReq mshr miss latency
system.cpu3.dcache.demand_avg_mshr_miss_latency::switch_cpus3.data 17125.871584                       # average overall mshr miss latency
system.cpu3.dcache.demand_avg_mshr_miss_latency::total 17125.871584                       # average overall mshr miss latency
system.cpu3.dcache.overall_avg_mshr_miss_latency::switch_cpus3.data 17125.871584                       # average overall mshr miss latency
system.cpu3.dcache.overall_avg_mshr_miss_latency::total 17125.871584                       # average overall mshr miss latency
system.cpu3.dcache.no_allocate_misses               0                       # Number of misses that were no-allocate

---------- End Simulation Statistics   ----------
