
---------- Begin Simulation Statistics ----------
sim_seconds                                  0.003631                       # Number of seconds simulated
sim_ticks                                  3631091718                       # Number of ticks simulated
final_tick                               533202435972                       # Number of ticks from beginning of simulation (restored from checkpoints and never reset)
sim_freq                                 1000000000000                       # Frequency of simulated ticks
host_inst_rate                                 336193                       # Simulator instruction rate (inst/s)
host_op_rate                                   435597                       # Simulator op (including micro ops) rate (op/s)
host_tick_rate                                 308370                       # Simulator tick rate (ticks/s)
host_mem_usage                               16916272                       # Number of bytes of host memory used
host_seconds                                 11775.11                       # Real time elapsed on the host
sim_insts                                  3958713856                       # Number of instructions simulated
sim_ops                                    5129207616                       # Number of ops (including micro ops) simulated
system.physmem.bytes_read::switch_cpus0.inst         5632                       # Number of bytes read from this memory
system.physmem.bytes_read::switch_cpus0.data       480640                       # Number of bytes read from this memory
system.physmem.bytes_read::switch_cpus1.inst         4992                       # Number of bytes read from this memory
system.physmem.bytes_read::switch_cpus1.data       373504                       # Number of bytes read from this memory
system.physmem.bytes_read::switch_cpus2.inst         5632                       # Number of bytes read from this memory
system.physmem.bytes_read::switch_cpus2.data       281600                       # Number of bytes read from this memory
system.physmem.bytes_read::switch_cpus3.inst         5248                       # Number of bytes read from this memory
system.physmem.bytes_read::switch_cpus3.data       359168                       # Number of bytes read from this memory
system.physmem.bytes_read::total              1516416                       # Number of bytes read from this memory
system.physmem.bytes_inst_read::switch_cpus0.inst         5632                       # Number of instructions bytes read from this memory
system.physmem.bytes_inst_read::switch_cpus1.inst         4992                       # Number of instructions bytes read from this memory
system.physmem.bytes_inst_read::switch_cpus2.inst         5632                       # Number of instructions bytes read from this memory
system.physmem.bytes_inst_read::switch_cpus3.inst         5248                       # Number of instructions bytes read from this memory
system.physmem.bytes_inst_read::total           21504                       # Number of instructions bytes read from this memory
system.physmem.bytes_written::writebacks       371968                       # Number of bytes written to this memory
system.physmem.bytes_written::total            371968                       # Number of bytes written to this memory
system.physmem.num_reads::switch_cpus0.inst           44                       # Number of read requests responded to by this memory
system.physmem.num_reads::switch_cpus0.data         3755                       # Number of read requests responded to by this memory
system.physmem.num_reads::switch_cpus1.inst           39                       # Number of read requests responded to by this memory
system.physmem.num_reads::switch_cpus1.data         2918                       # Number of read requests responded to by this memory
system.physmem.num_reads::switch_cpus2.inst           44                       # Number of read requests responded to by this memory
system.physmem.num_reads::switch_cpus2.data         2200                       # Number of read requests responded to by this memory
system.physmem.num_reads::switch_cpus3.inst           41                       # Number of read requests responded to by this memory
system.physmem.num_reads::switch_cpus3.data         2806                       # Number of read requests responded to by this memory
system.physmem.num_reads::total                 11847                       # Number of read requests responded to by this memory
system.physmem.num_writes::writebacks            2906                       # Number of write requests responded to by this memory
system.physmem.num_writes::functional               0                       # Number of write requests responded to by this memory
system.physmem.num_writes::interrupt                0                       # Number of write requests responded to by this memory
system.physmem.num_writes::switch_cpus0.dtb.walker            0                       # Number of write requests responded to by this memory
system.physmem.num_writes::switch_cpus0.itb.walker            0                       # Number of write requests responded to by this memory
system.physmem.num_writes::switch_cpus0.inst            0                       # Number of write requests responded to by this memory
system.physmem.num_writes::switch_cpus0.data            0                       # Number of write requests responded to by this memory
system.physmem.num_writes::switch_cpus1.dtb.walker            0                       # Number of write requests responded to by this memory
system.physmem.num_writes::switch_cpus1.itb.walker            0                       # Number of write requests responded to by this memory
system.physmem.num_writes::switch_cpus1.inst            0                       # Number of write requests responded to by this memory
system.physmem.num_writes::switch_cpus1.data            0                       # Number of write requests responded to by this memory
system.physmem.num_writes::switch_cpus2.dtb.walker            0                       # Number of write requests responded to by this memory
system.physmem.num_writes::switch_cpus2.itb.walker            0                       # Number of write requests responded to by this memory
system.physmem.num_writes::switch_cpus2.inst            0                       # Number of write requests responded to by this memory
system.physmem.num_writes::switch_cpus2.data            0                       # Number of write requests responded to by this memory
system.physmem.num_writes::switch_cpus3.dtb.walker            0                       # Number of write requests responded to by this memory
system.physmem.num_writes::switch_cpus3.itb.walker            0                       # Number of write requests responded to by this memory
system.physmem.num_writes::switch_cpus3.inst            0                       # Number of write requests responded to by this memory
system.physmem.num_writes::switch_cpus3.data            0                       # Number of write requests responded to by this memory
system.physmem.num_writes::cpu0.dtb.walker            0                       # Number of write requests responded to by this memory
system.physmem.num_writes::cpu0.itb.walker            0                       # Number of write requests responded to by this memory
system.physmem.num_writes::cpu0.inst                0                       # Number of write requests responded to by this memory
system.physmem.num_writes::cpu0.data                0                       # Number of write requests responded to by this memory
system.physmem.num_writes::cpu1.dtb.walker            0                       # Number of write requests responded to by this memory
system.physmem.num_writes::cpu1.itb.walker            0                       # Number of write requests responded to by this memory
system.physmem.num_writes::cpu1.inst                0                       # Number of write requests responded to by this memory
system.physmem.num_writes::cpu1.data                0                       # Number of write requests responded to by this memory
system.physmem.num_writes::cpu2.dtb.walker            0                       # Number of write requests responded to by this memory
system.physmem.num_writes::cpu2.itb.walker            0                       # Number of write requests responded to by this memory
system.physmem.num_writes::cpu2.inst                0                       # Number of write requests responded to by this memory
system.physmem.num_writes::cpu2.data                0                       # Number of write requests responded to by this memory
system.physmem.num_writes::cpu3.dtb.walker            0                       # Number of write requests responded to by this memory
system.physmem.num_writes::cpu3.itb.walker            0                       # Number of write requests responded to by this memory
system.physmem.num_writes::cpu3.inst                0                       # Number of write requests responded to by this memory
system.physmem.num_writes::cpu3.data                0                       # Number of write requests responded to by this memory
system.physmem.num_writes::total                 2906                       # Number of write requests responded to by this memory
system.physmem.bw_read::switch_cpus0.inst      1551049                       # Total read bandwidth from this memory (bytes/s)
system.physmem.bw_read::switch_cpus0.data    132367904                       # Total read bandwidth from this memory (bytes/s)
system.physmem.bw_read::switch_cpus1.inst      1374793                       # Total read bandwidth from this memory (bytes/s)
system.physmem.bw_read::switch_cpus1.data    102862728                       # Total read bandwidth from this memory (bytes/s)
system.physmem.bw_read::switch_cpus2.inst      1551049                       # Total read bandwidth from this memory (bytes/s)
system.physmem.bw_read::switch_cpus2.data     77552434                       # Total read bandwidth from this memory (bytes/s)
system.physmem.bw_read::switch_cpus3.inst      1445295                       # Total read bandwidth from this memory (bytes/s)
system.physmem.bw_read::switch_cpus3.data     98914604                       # Total read bandwidth from this memory (bytes/s)
system.physmem.bw_read::total               417619856                       # Total read bandwidth from this memory (bytes/s)
system.physmem.bw_inst_read::switch_cpus0.inst      1551049                       # Instruction read bandwidth from this memory (bytes/s)
system.physmem.bw_inst_read::switch_cpus1.inst      1374793                       # Instruction read bandwidth from this memory (bytes/s)
system.physmem.bw_inst_read::switch_cpus2.inst      1551049                       # Instruction read bandwidth from this memory (bytes/s)
system.physmem.bw_inst_read::switch_cpus3.inst      1445295                       # Instruction read bandwidth from this memory (bytes/s)
system.physmem.bw_inst_read::total            5922186                       # Instruction read bandwidth from this memory (bytes/s)
system.physmem.bw_write::writebacks         102439715                       # Write bandwidth from this memory (bytes/s)
system.physmem.bw_write::total              102439715                       # Write bandwidth from this memory (bytes/s)
system.physmem.bw_total::writebacks         102439715                       # Total bandwidth to/from this memory (bytes/s)
system.physmem.bw_total::switch_cpus0.inst      1551049                       # Total bandwidth to/from this memory (bytes/s)
system.physmem.bw_total::switch_cpus0.data    132367904                       # Total bandwidth to/from this memory (bytes/s)
system.physmem.bw_total::switch_cpus1.inst      1374793                       # Total bandwidth to/from this memory (bytes/s)
system.physmem.bw_total::switch_cpus1.data    102862728                       # Total bandwidth to/from this memory (bytes/s)
system.physmem.bw_total::switch_cpus2.inst      1551049                       # Total bandwidth to/from this memory (bytes/s)
system.physmem.bw_total::switch_cpus2.data     77552434                       # Total bandwidth to/from this memory (bytes/s)
system.physmem.bw_total::switch_cpus3.inst      1445295                       # Total bandwidth to/from this memory (bytes/s)
system.physmem.bw_total::switch_cpus3.data     98914604                       # Total bandwidth to/from this memory (bytes/s)
system.physmem.bw_total::total              520059571                       # Total bandwidth to/from this memory (bytes/s)
system.switch_cpus0.dtb.inst_hits                   0                       # ITB inst hits
system.switch_cpus0.dtb.inst_misses                 0                       # ITB inst misses
system.switch_cpus0.dtb.read_hits                   0                       # DTB read hits
system.switch_cpus0.dtb.read_misses                 0                       # DTB read misses
system.switch_cpus0.dtb.write_hits                  0                       # DTB write hits
system.switch_cpus0.dtb.write_misses                0                       # DTB write misses
system.switch_cpus0.dtb.flush_tlb                   0                       # Number of times complete TLB was flushed
system.switch_cpus0.dtb.flush_tlb_mva               0                       # Number of times TLB was flushed by MVA
system.switch_cpus0.dtb.flush_tlb_mva_asid            0                       # Number of times TLB was flushed by MVA & ASID
system.switch_cpus0.dtb.flush_tlb_asid              0                       # Number of times TLB was flushed by ASID
system.switch_cpus0.dtb.flush_entries               0                       # Number of entries that have been flushed from TLB
system.switch_cpus0.dtb.align_faults                0                       # Number of TLB faults due to alignment restrictions
system.switch_cpus0.dtb.prefetch_faults             0                       # Number of TLB faults due to prefetch
system.switch_cpus0.dtb.domain_faults               0                       # Number of TLB faults due to domain restrictions
system.switch_cpus0.dtb.perms_faults                0                       # Number of TLB faults due to permissions restrictions
system.switch_cpus0.dtb.read_accesses               0                       # DTB read accesses
system.switch_cpus0.dtb.write_accesses              0                       # DTB write accesses
system.switch_cpus0.dtb.inst_accesses               0                       # ITB inst accesses
system.switch_cpus0.dtb.hits                        0                       # DTB hits
system.switch_cpus0.dtb.misses                      0                       # DTB misses
system.switch_cpus0.dtb.accesses                    0                       # DTB accesses
system.switch_cpus0.itb.inst_hits                   0                       # ITB inst hits
system.switch_cpus0.itb.inst_misses                 0                       # ITB inst misses
system.switch_cpus0.itb.read_hits                   0                       # DTB read hits
system.switch_cpus0.itb.read_misses                 0                       # DTB read misses
system.switch_cpus0.itb.write_hits                  0                       # DTB write hits
system.switch_cpus0.itb.write_misses                0                       # DTB write misses
system.switch_cpus0.itb.flush_tlb                   0                       # Number of times complete TLB was flushed
system.switch_cpus0.itb.flush_tlb_mva               0                       # Number of times TLB was flushed by MVA
system.switch_cpus0.itb.flush_tlb_mva_asid            0                       # Number of times TLB was flushed by MVA & ASID
system.switch_cpus0.itb.flush_tlb_asid              0                       # Number of times TLB was flushed by ASID
system.switch_cpus0.itb.flush_entries               0                       # Number of entries that have been flushed from TLB
system.switch_cpus0.itb.align_faults                0                       # Number of TLB faults due to alignment restrictions
system.switch_cpus0.itb.prefetch_faults             0                       # Number of TLB faults due to prefetch
system.switch_cpus0.itb.domain_faults               0                       # Number of TLB faults due to domain restrictions
system.switch_cpus0.itb.perms_faults                0                       # Number of TLB faults due to permissions restrictions
system.switch_cpus0.itb.read_accesses               0                       # DTB read accesses
system.switch_cpus0.itb.write_accesses              0                       # DTB write accesses
system.switch_cpus0.itb.inst_accesses               0                       # ITB inst accesses
system.switch_cpus0.itb.hits                        0                       # DTB hits
system.switch_cpus0.itb.misses                      0                       # DTB misses
system.switch_cpus0.itb.accesses                    0                       # DTB accesses
system.cpu0.workload.num_syscalls                  12                       # Number of system calls
system.switch_cpus0.numCycles                 8707655                       # number of cpu cycles simulated
system.switch_cpus0.numWorkItemsStarted             0                       # number of work items this cpu started
system.switch_cpus0.numWorkItemsCompleted            0                       # number of work items this cpu completed
system.switch_cpus0.BPredUnit.lookups         3092062                       # Number of BP lookups
system.switch_cpus0.BPredUnit.condPredicted      2539063                       # Number of conditional branches predicted
system.switch_cpus0.BPredUnit.condIncorrect       208260                       # Number of conditional branches incorrect
system.switch_cpus0.BPredUnit.BTBLookups      1323592                       # Number of BTB lookups
system.switch_cpus0.BPredUnit.BTBHits         1198967                       # Number of BTB hits
system.switch_cpus0.BPredUnit.BTBCorrect            0                       # Number of correct BTB predictions (this stat may not work properly.
system.switch_cpus0.BPredUnit.usedRAS          301280                       # Number of times the RAS was used to get a target.
system.switch_cpus0.BPredUnit.RASInCorrect         8881                       # Number of incorrect RAS predictions.
system.switch_cpus0.fetch.icacheStallCycles      3333937                       # Number of cycles fetch is stalled on an Icache miss
system.switch_cpus0.fetch.Insts              16827598                       # Number of instructions fetch has processed
system.switch_cpus0.fetch.Branches            3092062                       # Number of branches that fetch encountered
system.switch_cpus0.fetch.predictedBranches      1500247                       # Number of branches that fetch has predicted taken
system.switch_cpus0.fetch.Cycles              3605542                       # Number of cycles fetch has run and was not squashing or blocked
system.switch_cpus0.fetch.SquashCycles        1044522                       # Number of cycles fetch has spent squashing
system.switch_cpus0.fetch.BlockedCycles        741406                       # Number of cycles fetch has spent blocked
system.switch_cpus0.fetch.PendingTrapStallCycles            6                       # Number of stall cycles due to pending traps
system.switch_cpus0.fetch.CacheLines          1640740                       # Number of cache lines fetched
system.switch_cpus0.fetch.IcacheSquashes        93504                       # Number of outstanding Icache misses that were squashed
system.switch_cpus0.fetch.rateDist::samples      8513975                       # Number of instructions fetched each cycle (Total)
system.switch_cpus0.fetch.rateDist::mean     2.425333                       # Number of instructions fetched each cycle (Total)
system.switch_cpus0.fetch.rateDist::stdev     3.316731                       # Number of instructions fetched each cycle (Total)
system.switch_cpus0.fetch.rateDist::underflows            0      0.00%      0.00% # Number of instructions fetched each cycle (Total)
system.switch_cpus0.fetch.rateDist::0         4908433     57.65%     57.65% # Number of instructions fetched each cycle (Total)
system.switch_cpus0.fetch.rateDist::1          354269      4.16%     61.81% # Number of instructions fetched each cycle (Total)
system.switch_cpus0.fetch.rateDist::2          337072      3.96%     65.77% # Number of instructions fetched each cycle (Total)
system.switch_cpus0.fetch.rateDist::3          318243      3.74%     69.51% # Number of instructions fetched each cycle (Total)
system.switch_cpus0.fetch.rateDist::4          262171      3.08%     72.59% # Number of instructions fetched each cycle (Total)
system.switch_cpus0.fetch.rateDist::5          189591      2.23%     74.82% # Number of instructions fetched each cycle (Total)
system.switch_cpus0.fetch.rateDist::6          136505      1.60%     76.42% # Number of instructions fetched each cycle (Total)
system.switch_cpus0.fetch.rateDist::7          211112      2.48%     78.90% # Number of instructions fetched each cycle (Total)
system.switch_cpus0.fetch.rateDist::8         1796579     21.10%    100.00% # Number of instructions fetched each cycle (Total)
system.switch_cpus0.fetch.rateDist::overflows            0      0.00%    100.00% # Number of instructions fetched each cycle (Total)
system.switch_cpus0.fetch.rateDist::min_value            0                       # Number of instructions fetched each cycle (Total)
system.switch_cpus0.fetch.rateDist::max_value            8                       # Number of instructions fetched each cycle (Total)
system.switch_cpus0.fetch.rateDist::total      8513975                       # Number of instructions fetched each cycle (Total)
system.switch_cpus0.fetch.branchRate         0.355097                       # Number of branch fetches per cycle
system.switch_cpus0.fetch.rate               1.932506                       # Number of inst fetches per cycle
system.switch_cpus0.decode.IdleCycles         3489431                       # Number of cycles decode is idle
system.switch_cpus0.decode.BlockedCycles       708612                       # Number of cycles decode is blocked
system.switch_cpus0.decode.RunCycles          3446926                       # Number of cycles decode is running
system.switch_cpus0.decode.UnblockCycles        39774                       # Number of cycles decode is unblocking
system.switch_cpus0.decode.SquashCycles        829229                       # Number of cycles decode is squashing
system.switch_cpus0.decode.BranchResolved       496732                       # Number of times decode resolved a branch
system.switch_cpus0.decode.BranchMispred         3878                       # Number of times decode detected a branch misprediction
system.switch_cpus0.decode.DecodedInsts      20002729                       # Number of instructions handled by decode
system.switch_cpus0.decode.SquashedInsts        10443                       # Number of squashed instructions handled by decode
system.switch_cpus0.rename.SquashCycles        829229                       # Number of cycles rename is squashing
system.switch_cpus0.rename.IdleCycles         3672809                       # Number of cycles rename is idle
system.switch_cpus0.rename.BlockCycles         351755                       # Number of cycles rename is blocking
system.switch_cpus0.rename.serializeStallCycles        80172                       # count of cycles rename stalled for serializing inst
system.switch_cpus0.rename.RunCycles          3296509                       # Number of cycles rename is running
system.switch_cpus0.rename.UnblockCycles       283498                       # Number of cycles rename is unblocking
system.switch_cpus0.rename.RenamedInsts      19399964                       # Number of instructions processed by rename
system.switch_cpus0.rename.ROBFullEvents           64                       # Number of times rename has blocked due to ROB full
system.switch_cpus0.rename.IQFullEvents        150261                       # Number of times rename has blocked due to IQ full
system.switch_cpus0.rename.LSQFullEvents        82917                       # Number of times rename has blocked due to LSQ full
system.switch_cpus0.rename.FullRegisterEvents           30                       # Number of times there has been no free registers
system.switch_cpus0.rename.RenamedOperands     26893251                       # Number of destination operands rename has renamed
system.switch_cpus0.rename.RenameLookups     90377186                       # Number of register rename lookups that rename has made
system.switch_cpus0.rename.int_rename_lookups     90377186                       # Number of integer rename lookups
system.switch_cpus0.rename.CommittedMaps     16795127                       # Number of HB maps that are committed
system.switch_cpus0.rename.UndoneMaps        10098079                       # Number of HB maps that are undone due to squashing
system.switch_cpus0.rename.serializingInsts         3646                       # count of serializing insts renamed
system.switch_cpus0.rename.tempSerializingInsts         1909                       # count of temporary serializing insts renamed
system.switch_cpus0.rename.skidInsts           697159                       # count of insts added to the skid buffer
system.switch_cpus0.memDep0.insertedLoads      1908817                       # Number of loads inserted to the mem dependence unit.
system.switch_cpus0.memDep0.insertedStores      1017266                       # Number of stores inserted to the mem dependence unit.
system.switch_cpus0.memDep0.conflictingLoads        23812                       # Number of conflicting loads.
system.switch_cpus0.memDep0.conflictingStores       413381                       # Number of conflicting stores.
system.switch_cpus0.iq.iqInstsAdded          18072337                       # Number of instructions added to the IQ (excludes non-spec)
system.switch_cpus0.iq.iqNonSpecInstsAdded         3521                       # Number of non-speculative instructions added to the IQ
system.switch_cpus0.iq.iqInstsIssued         14633910                       # Number of instructions issued
system.switch_cpus0.iq.iqSquashedInstsIssued        23071                       # Number of squashed instructions issued
system.switch_cpus0.iq.iqSquashedInstsExamined      5729358                       # Number of squashed instructions iterated over during squash; mainly for profiling
system.switch_cpus0.iq.iqSquashedOperandsExamined     17472577                       # Number of squashed operands that are examined and possibly removed from graph
system.switch_cpus0.iq.iqSquashedNonSpecRemoved          268                       # Number of squashed non-spec instructions that were removed
system.switch_cpus0.iq.issued_per_cycle::samples      8513975                       # Number of insts issued each cycle
system.switch_cpus0.iq.issued_per_cycle::mean     1.718811                       # Number of insts issued each cycle
system.switch_cpus0.iq.issued_per_cycle::stdev     1.841424                       # Number of insts issued each cycle
system.switch_cpus0.iq.issued_per_cycle::underflows            0      0.00%      0.00% # Number of insts issued each cycle
system.switch_cpus0.iq.issued_per_cycle::0      3027508     35.56%     35.56% # Number of insts issued each cycle
system.switch_cpus0.iq.issued_per_cycle::1      1711335     20.10%     55.66% # Number of insts issued each cycle
system.switch_cpus0.iq.issued_per_cycle::2      1356066     15.93%     71.59% # Number of insts issued each cycle
system.switch_cpus0.iq.issued_per_cycle::3       819952      9.63%     81.22% # Number of insts issued each cycle
system.switch_cpus0.iq.issued_per_cycle::4       834830      9.81%     91.02% # Number of insts issued each cycle
system.switch_cpus0.iq.issued_per_cycle::5       381882      4.49%     95.51% # Number of insts issued each cycle
system.switch_cpus0.iq.issued_per_cycle::6       244811      2.88%     98.38% # Number of insts issued each cycle
system.switch_cpus0.iq.issued_per_cycle::7        67737      0.80%     99.18% # Number of insts issued each cycle
system.switch_cpus0.iq.issued_per_cycle::8        69854      0.82%    100.00% # Number of insts issued each cycle
system.switch_cpus0.iq.issued_per_cycle::overflows            0      0.00%    100.00% # Number of insts issued each cycle
system.switch_cpus0.iq.issued_per_cycle::min_value            0                       # Number of insts issued each cycle
system.switch_cpus0.iq.issued_per_cycle::max_value            8                       # Number of insts issued each cycle
system.switch_cpus0.iq.issued_per_cycle::total      8513975                       # Number of insts issued each cycle
system.switch_cpus0.iq.fu_full::No_OpClass            0      0.00%      0.00% # attempts to use FU when none available
system.switch_cpus0.iq.fu_full::IntAlu          63566     57.78%     57.78% # attempts to use FU when none available
system.switch_cpus0.iq.fu_full::IntMult             0      0.00%     57.78% # attempts to use FU when none available
system.switch_cpus0.iq.fu_full::IntDiv              0      0.00%     57.78% # attempts to use FU when none available
system.switch_cpus0.iq.fu_full::FloatAdd            0      0.00%     57.78% # attempts to use FU when none available
system.switch_cpus0.iq.fu_full::FloatCmp            0      0.00%     57.78% # attempts to use FU when none available
system.switch_cpus0.iq.fu_full::FloatCvt            0      0.00%     57.78% # attempts to use FU when none available
system.switch_cpus0.iq.fu_full::FloatMult            0      0.00%     57.78% # attempts to use FU when none available
system.switch_cpus0.iq.fu_full::FloatDiv            0      0.00%     57.78% # attempts to use FU when none available
system.switch_cpus0.iq.fu_full::FloatSqrt            0      0.00%     57.78% # attempts to use FU when none available
system.switch_cpus0.iq.fu_full::SimdAdd             0      0.00%     57.78% # attempts to use FU when none available
system.switch_cpus0.iq.fu_full::SimdAddAcc            0      0.00%     57.78% # attempts to use FU when none available
system.switch_cpus0.iq.fu_full::SimdAlu             0      0.00%     57.78% # attempts to use FU when none available
system.switch_cpus0.iq.fu_full::SimdCmp             0      0.00%     57.78% # attempts to use FU when none available
system.switch_cpus0.iq.fu_full::SimdCvt             0      0.00%     57.78% # attempts to use FU when none available
system.switch_cpus0.iq.fu_full::SimdMisc            0      0.00%     57.78% # attempts to use FU when none available
system.switch_cpus0.iq.fu_full::SimdMult            0      0.00%     57.78% # attempts to use FU when none available
system.switch_cpus0.iq.fu_full::SimdMultAcc            0      0.00%     57.78% # attempts to use FU when none available
system.switch_cpus0.iq.fu_full::SimdShift            0      0.00%     57.78% # attempts to use FU when none available
system.switch_cpus0.iq.fu_full::SimdShiftAcc            0      0.00%     57.78% # attempts to use FU when none available
system.switch_cpus0.iq.fu_full::SimdSqrt            0      0.00%     57.78% # attempts to use FU when none available
system.switch_cpus0.iq.fu_full::SimdFloatAdd            0      0.00%     57.78% # attempts to use FU when none available
system.switch_cpus0.iq.fu_full::SimdFloatAlu            0      0.00%     57.78% # attempts to use FU when none available
system.switch_cpus0.iq.fu_full::SimdFloatCmp            0      0.00%     57.78% # attempts to use FU when none available
system.switch_cpus0.iq.fu_full::SimdFloatCvt            0      0.00%     57.78% # attempts to use FU when none available
system.switch_cpus0.iq.fu_full::SimdFloatDiv            0      0.00%     57.78% # attempts to use FU when none available
system.switch_cpus0.iq.fu_full::SimdFloatMisc            0      0.00%     57.78% # attempts to use FU when none available
system.switch_cpus0.iq.fu_full::SimdFloatMult            0      0.00%     57.78% # attempts to use FU when none available
system.switch_cpus0.iq.fu_full::SimdFloatMultAcc            0      0.00%     57.78% # attempts to use FU when none available
system.switch_cpus0.iq.fu_full::SimdFloatSqrt            0      0.00%     57.78% # attempts to use FU when none available
system.switch_cpus0.iq.fu_full::MemRead         21752     19.77%     77.55% # attempts to use FU when none available
system.switch_cpus0.iq.fu_full::MemWrite        24700     22.45%    100.00% # attempts to use FU when none available
system.switch_cpus0.iq.fu_full::IprAccess            0      0.00%    100.00% # attempts to use FU when none available
system.switch_cpus0.iq.fu_full::InstPrefetch            0      0.00%    100.00% # attempts to use FU when none available
system.switch_cpus0.iq.FU_type_0::No_OpClass            0      0.00%      0.00% # Type of FU issued
system.switch_cpus0.iq.FU_type_0::IntAlu     12027570     82.19%     82.19% # Type of FU issued
system.switch_cpus0.iq.FU_type_0::IntMult       200553      1.37%     83.56% # Type of FU issued
system.switch_cpus0.iq.FU_type_0::IntDiv            0      0.00%     83.56% # Type of FU issued
system.switch_cpus0.iq.FU_type_0::FloatAdd            0      0.00%     83.56% # Type of FU issued
system.switch_cpus0.iq.FU_type_0::FloatCmp            0      0.00%     83.56% # Type of FU issued
system.switch_cpus0.iq.FU_type_0::FloatCvt            0      0.00%     83.56% # Type of FU issued
system.switch_cpus0.iq.FU_type_0::FloatMult            0      0.00%     83.56% # Type of FU issued
system.switch_cpus0.iq.FU_type_0::FloatDiv            0      0.00%     83.56% # Type of FU issued
system.switch_cpus0.iq.FU_type_0::FloatSqrt            0      0.00%     83.56% # Type of FU issued
system.switch_cpus0.iq.FU_type_0::SimdAdd            0      0.00%     83.56% # Type of FU issued
system.switch_cpus0.iq.FU_type_0::SimdAddAcc            0      0.00%     83.56% # Type of FU issued
system.switch_cpus0.iq.FU_type_0::SimdAlu            0      0.00%     83.56% # Type of FU issued
system.switch_cpus0.iq.FU_type_0::SimdCmp            0      0.00%     83.56% # Type of FU issued
system.switch_cpus0.iq.FU_type_0::SimdCvt            0      0.00%     83.56% # Type of FU issued
system.switch_cpus0.iq.FU_type_0::SimdMisc            0      0.00%     83.56% # Type of FU issued
system.switch_cpus0.iq.FU_type_0::SimdMult            0      0.00%     83.56% # Type of FU issued
system.switch_cpus0.iq.FU_type_0::SimdMultAcc            0      0.00%     83.56% # Type of FU issued
system.switch_cpus0.iq.FU_type_0::SimdShift            0      0.00%     83.56% # Type of FU issued
system.switch_cpus0.iq.FU_type_0::SimdShiftAcc            0      0.00%     83.56% # Type of FU issued
system.switch_cpus0.iq.FU_type_0::SimdSqrt            0      0.00%     83.56% # Type of FU issued
system.switch_cpus0.iq.FU_type_0::SimdFloatAdd            0      0.00%     83.56% # Type of FU issued
system.switch_cpus0.iq.FU_type_0::SimdFloatAlu            0      0.00%     83.56% # Type of FU issued
system.switch_cpus0.iq.FU_type_0::SimdFloatCmp            0      0.00%     83.56% # Type of FU issued
system.switch_cpus0.iq.FU_type_0::SimdFloatCvt            0      0.00%     83.56% # Type of FU issued
system.switch_cpus0.iq.FU_type_0::SimdFloatDiv            0      0.00%     83.56% # Type of FU issued
system.switch_cpus0.iq.FU_type_0::SimdFloatMisc         1594      0.01%     83.57% # Type of FU issued
system.switch_cpus0.iq.FU_type_0::SimdFloatMult            0      0.00%     83.57% # Type of FU issued
system.switch_cpus0.iq.FU_type_0::SimdFloatMultAcc            0      0.00%     83.57% # Type of FU issued
system.switch_cpus0.iq.FU_type_0::SimdFloatSqrt            0      0.00%     83.57% # Type of FU issued
system.switch_cpus0.iq.FU_type_0::MemRead      1552760     10.61%     94.18% # Type of FU issued
system.switch_cpus0.iq.FU_type_0::MemWrite       851433      5.82%    100.00% # Type of FU issued
system.switch_cpus0.iq.FU_type_0::IprAccess            0      0.00%    100.00% # Type of FU issued
system.switch_cpus0.iq.FU_type_0::InstPrefetch            0      0.00%    100.00% # Type of FU issued
system.switch_cpus0.iq.FU_type_0::total      14633910                       # Type of FU issued
system.switch_cpus0.iq.rate                  1.680580                       # Inst issue rate
system.switch_cpus0.iq.fu_busy_cnt             110018                       # FU busy when requested
system.switch_cpus0.iq.fu_busy_rate          0.007518                       # FU busy rate (busy events/executed inst)
system.switch_cpus0.iq.int_inst_queue_reads     37914883                       # Number of integer instruction queue reads
system.switch_cpus0.iq.int_inst_queue_writes     23805430                       # Number of integer instruction queue writes
system.switch_cpus0.iq.int_inst_queue_wakeup_accesses     14260852                       # Number of integer instruction queue wakeup accesses
system.switch_cpus0.iq.fp_inst_queue_reads            0                       # Number of floating instruction queue reads
system.switch_cpus0.iq.fp_inst_queue_writes            0                       # Number of floating instruction queue writes
system.switch_cpus0.iq.fp_inst_queue_wakeup_accesses            0                       # Number of floating instruction queue wakeup accesses
system.switch_cpus0.iq.int_alu_accesses      14743928                       # Number of integer alu accesses
system.switch_cpus0.iq.fp_alu_accesses              0                       # Number of floating point alu accesses
system.switch_cpus0.iew.lsq.thread0.forwLoads        45515                       # Number of loads that had data forwarded from stores
system.switch_cpus0.iew.lsq.thread0.invAddrLoads            0                       # Number of loads ignored due to an invalid address
system.switch_cpus0.iew.lsq.thread0.squashedLoads       676455                       # Number of loads squashed
system.switch_cpus0.iew.lsq.thread0.ignoredResponses          442                       # Number of memory responses ignored because the instruction is squashed
system.switch_cpus0.iew.lsq.thread0.memOrderViolation          219                       # Number of memory ordering violations
system.switch_cpus0.iew.lsq.thread0.squashedStores       235296                       # Number of stores squashed
system.switch_cpus0.iew.lsq.thread0.invAddrSwpfs            0                       # Number of software prefetches ignored due to an invalid address
system.switch_cpus0.iew.lsq.thread0.blockedLoads            0                       # Number of blocked loads due to partial load-store forwarding
system.switch_cpus0.iew.lsq.thread0.rescheduledLoads           77                       # Number of loads that were rescheduled
system.switch_cpus0.iew.lsq.thread0.cacheBlocked            0                       # Number of times an access to memory failed due to the cache being blocked
system.switch_cpus0.iew.iewIdleCycles               0                       # Number of cycles IEW is idle
system.switch_cpus0.iew.iewSquashCycles        829229                       # Number of cycles IEW is squashing
system.switch_cpus0.iew.iewBlockCycles         263515                       # Number of cycles IEW is blocking
system.switch_cpus0.iew.iewUnblockCycles        14867                       # Number of cycles IEW is unblocking
system.switch_cpus0.iew.iewDispatchedInsts     18075859                       # Number of instructions dispatched to IQ
system.switch_cpus0.iew.iewDispSquashedInsts        86381                       # Number of squashed instructions skipped by dispatch
system.switch_cpus0.iew.iewDispLoadInsts      1908817                       # Number of dispatched load instructions
system.switch_cpus0.iew.iewDispStoreInsts      1017266                       # Number of dispatched store instructions
system.switch_cpus0.iew.iewDispNonSpecInsts         1901                       # Number of dispatched non-speculative instructions
system.switch_cpus0.iew.iewIQFullEvents         10045                       # Number of times the IQ has become full, causing a stall
system.switch_cpus0.iew.iewLSQFullEvents         1454                       # Number of times the LSQ has become full, causing a stall
system.switch_cpus0.iew.memOrderViolationEvents          219                       # Number of memory order violations
system.switch_cpus0.iew.predictedTakenIncorrect       124136                       # Number of branches that were predicted taken incorrectly
system.switch_cpus0.iew.predictedNotTakenIncorrect       115878                       # Number of branches that were predicted not taken incorrectly
system.switch_cpus0.iew.branchMispredicts       240014                       # Number of branch mispredicts detected at execute
system.switch_cpus0.iew.iewExecutedInsts     14391547                       # Number of executed instructions
system.switch_cpus0.iew.iewExecLoadInsts      1473002                       # Number of load instructions executed
system.switch_cpus0.iew.iewExecSquashedInsts       242362                       # Number of squashed instructions skipped in execute
system.switch_cpus0.iew.exec_swp                    0                       # number of swp insts executed
system.switch_cpus0.iew.exec_nop                    1                       # number of nop insts executed
system.switch_cpus0.iew.exec_refs             2310769                       # number of memory reference insts executed
system.switch_cpus0.iew.exec_branches         2022025                       # Number of branches executed
system.switch_cpus0.iew.exec_stores            837767                       # Number of stores executed
system.switch_cpus0.iew.exec_rate            1.652747                       # Inst execution rate
system.switch_cpus0.iew.wb_sent              14271450                       # cumulative count of insts sent to commit
system.switch_cpus0.iew.wb_count             14260852                       # cumulative count of insts written-back
system.switch_cpus0.iew.wb_producers          9212022                       # num instructions producing a value
system.switch_cpus0.iew.wb_consumers         24916079                       # num instructions consuming a value
system.switch_cpus0.iew.wb_penalized                0                       # number of instrctions required to write to 'other' IQ
system.switch_cpus0.iew.wb_rate              1.637737                       # insts written-back per cycle
system.switch_cpus0.iew.wb_fanout            0.369722                       # average fanout of values written-back
system.switch_cpus0.iew.wb_penalized_rate            0                       # fraction of instructions written-back that wrote to 'other' IQ
system.switch_cpus0.commit.commitCommittedInsts     10000000                       # The number of committed instructions
system.switch_cpus0.commit.commitCommittedOps     12239191                       # The number of committed instructions
system.switch_cpus0.commit.commitSquashedInsts      5837530                       # The number of squashed insts skipped by commit
system.switch_cpus0.commit.commitNonSpecStalls         3253                       # The number of times commit has been forced to stall to communicate backwards
system.switch_cpus0.commit.branchMispredicts       207420                       # The number of times a branch was mispredicted
system.switch_cpus0.commit.committed_per_cycle::samples      7684746                       # Number of insts commited each cycle
system.switch_cpus0.commit.committed_per_cycle::mean     1.592660                       # Number of insts commited each cycle
system.switch_cpus0.commit.committed_per_cycle::stdev     2.112787                       # Number of insts commited each cycle
system.switch_cpus0.commit.committed_per_cycle::underflows            0      0.00%      0.00% # Number of insts commited each cycle
system.switch_cpus0.commit.committed_per_cycle::0      3091755     40.23%     40.23% # Number of insts commited each cycle
system.switch_cpus0.commit.committed_per_cycle::1      2052375     26.71%     66.94% # Number of insts commited each cycle
system.switch_cpus0.commit.committed_per_cycle::2       851838     11.08%     78.02% # Number of insts commited each cycle
system.switch_cpus0.commit.committed_per_cycle::3       429409      5.59%     83.61% # Number of insts commited each cycle
system.switch_cpus0.commit.committed_per_cycle::4       450481      5.86%     89.47% # Number of insts commited each cycle
system.switch_cpus0.commit.committed_per_cycle::5       226133      2.94%     92.42% # Number of insts commited each cycle
system.switch_cpus0.commit.committed_per_cycle::6       155286      2.02%     94.44% # Number of insts commited each cycle
system.switch_cpus0.commit.committed_per_cycle::7        89144      1.16%     95.60% # Number of insts commited each cycle
system.switch_cpus0.commit.committed_per_cycle::8       338325      4.40%    100.00% # Number of insts commited each cycle
system.switch_cpus0.commit.committed_per_cycle::overflows            0      0.00%    100.00% # Number of insts commited each cycle
system.switch_cpus0.commit.committed_per_cycle::min_value            0                       # Number of insts commited each cycle
system.switch_cpus0.commit.committed_per_cycle::max_value            8                       # Number of insts commited each cycle
system.switch_cpus0.commit.committed_per_cycle::total      7684746                       # Number of insts commited each cycle
system.switch_cpus0.commit.committedInsts     10000000                       # Number of instructions committed
system.switch_cpus0.commit.committedOps      12239191                       # Number of ops (including micro ops) committed
system.switch_cpus0.commit.swp_count                0                       # Number of s/w prefetches committed
system.switch_cpus0.commit.refs               2014329                       # Number of memory references committed
system.switch_cpus0.commit.loads              1232359                       # Number of loads committed
system.switch_cpus0.commit.membars               1618                       # Number of memory barriers committed
system.switch_cpus0.commit.branches           1757708                       # Number of branches committed
system.switch_cpus0.commit.fp_insts                 0                       # Number of committed floating point instructions.
system.switch_cpus0.commit.int_insts         11009334                       # Number of committed integer instructions.
system.switch_cpus0.commit.function_calls       240449                       # Number of function calls committed.
system.switch_cpus0.commit.bw_lim_events       338325                       # number cycles where commit BW limit reached
system.switch_cpus0.commit.bw_limited               0                       # number of insts not committed due to BW limits
system.switch_cpus0.rob.rob_reads            25422986                       # The number of ROB reads
system.switch_cpus0.rob.rob_writes           36983233                       # The number of ROB writes
system.switch_cpus0.timesIdled                   5092                       # Number of times that the entire CPU went into an idle state and unscheduled itself
system.switch_cpus0.idleCycles                 193680                       # Total number of cycles that the CPU has spent unscheduled due to idling
system.switch_cpus0.committedInsts           10000000                       # Number of Instructions Simulated
system.switch_cpus0.committedOps             12239191                       # Number of Ops (including micro ops) Simulated
system.switch_cpus0.committedInsts_total     10000000                       # Number of Instructions Simulated
system.switch_cpus0.cpi                      0.870765                       # CPI: Cycles Per Instruction
system.switch_cpus0.cpi_total                0.870765                       # CPI: Total CPI of All Threads
system.switch_cpus0.ipc                      1.148415                       # IPC: Instructions Per Cycle
system.switch_cpus0.ipc_total                1.148415                       # IPC: Total IPC of All Threads
system.switch_cpus0.int_regfile_reads        65065224                       # number of integer regfile reads
system.switch_cpus0.int_regfile_writes       19508834                       # number of integer regfile writes
system.switch_cpus0.misc_regfile_reads       18774552                       # number of misc regfile reads
system.switch_cpus0.misc_regfile_writes          3246                       # number of misc regfile writes
system.switch_cpus1.dtb.inst_hits                   0                       # ITB inst hits
system.switch_cpus1.dtb.inst_misses                 0                       # ITB inst misses
system.switch_cpus1.dtb.read_hits                   0                       # DTB read hits
system.switch_cpus1.dtb.read_misses                 0                       # DTB read misses
system.switch_cpus1.dtb.write_hits                  0                       # DTB write hits
system.switch_cpus1.dtb.write_misses                0                       # DTB write misses
system.switch_cpus1.dtb.flush_tlb                   0                       # Number of times complete TLB was flushed
system.switch_cpus1.dtb.flush_tlb_mva               0                       # Number of times TLB was flushed by MVA
system.switch_cpus1.dtb.flush_tlb_mva_asid            0                       # Number of times TLB was flushed by MVA & ASID
system.switch_cpus1.dtb.flush_tlb_asid              0                       # Number of times TLB was flushed by ASID
system.switch_cpus1.dtb.flush_entries               0                       # Number of entries that have been flushed from TLB
system.switch_cpus1.dtb.align_faults                0                       # Number of TLB faults due to alignment restrictions
system.switch_cpus1.dtb.prefetch_faults             0                       # Number of TLB faults due to prefetch
system.switch_cpus1.dtb.domain_faults               0                       # Number of TLB faults due to domain restrictions
system.switch_cpus1.dtb.perms_faults                0                       # Number of TLB faults due to permissions restrictions
system.switch_cpus1.dtb.read_accesses               0                       # DTB read accesses
system.switch_cpus1.dtb.write_accesses              0                       # DTB write accesses
system.switch_cpus1.dtb.inst_accesses               0                       # ITB inst accesses
system.switch_cpus1.dtb.hits                        0                       # DTB hits
system.switch_cpus1.dtb.misses                      0                       # DTB misses
system.switch_cpus1.dtb.accesses                    0                       # DTB accesses
system.switch_cpus1.itb.inst_hits                   0                       # ITB inst hits
system.switch_cpus1.itb.inst_misses                 0                       # ITB inst misses
system.switch_cpus1.itb.read_hits                   0                       # DTB read hits
system.switch_cpus1.itb.read_misses                 0                       # DTB read misses
system.switch_cpus1.itb.write_hits                  0                       # DTB write hits
system.switch_cpus1.itb.write_misses                0                       # DTB write misses
system.switch_cpus1.itb.flush_tlb                   0                       # Number of times complete TLB was flushed
system.switch_cpus1.itb.flush_tlb_mva               0                       # Number of times TLB was flushed by MVA
system.switch_cpus1.itb.flush_tlb_mva_asid            0                       # Number of times TLB was flushed by MVA & ASID
system.switch_cpus1.itb.flush_tlb_asid              0                       # Number of times TLB was flushed by ASID
system.switch_cpus1.itb.flush_entries               0                       # Number of entries that have been flushed from TLB
system.switch_cpus1.itb.align_faults                0                       # Number of TLB faults due to alignment restrictions
system.switch_cpus1.itb.prefetch_faults             0                       # Number of TLB faults due to prefetch
system.switch_cpus1.itb.domain_faults               0                       # Number of TLB faults due to domain restrictions
system.switch_cpus1.itb.perms_faults                0                       # Number of TLB faults due to permissions restrictions
system.switch_cpus1.itb.read_accesses               0                       # DTB read accesses
system.switch_cpus1.itb.write_accesses              0                       # DTB write accesses
system.switch_cpus1.itb.inst_accesses               0                       # ITB inst accesses
system.switch_cpus1.itb.hits                        0                       # DTB hits
system.switch_cpus1.itb.misses                      0                       # DTB misses
system.switch_cpus1.itb.accesses                    0                       # DTB accesses
system.cpu1.workload.num_syscalls                   8                       # Number of system calls
system.switch_cpus1.numCycles                 8707655                       # number of cpu cycles simulated
system.switch_cpus1.numWorkItemsStarted             0                       # number of work items this cpu started
system.switch_cpus1.numWorkItemsCompleted            0                       # number of work items this cpu completed
system.switch_cpus1.BPredUnit.lookups         3085831                       # Number of BP lookups
system.switch_cpus1.BPredUnit.condPredicted      2686727                       # Number of conditional branches predicted
system.switch_cpus1.BPredUnit.condIncorrect       202514                       # Number of conditional branches incorrect
system.switch_cpus1.BPredUnit.BTBLookups      1552289                       # Number of BTB lookups
system.switch_cpus1.BPredUnit.BTBHits         1490888                       # Number of BTB hits
system.switch_cpus1.BPredUnit.BTBCorrect            0                       # Number of correct BTB predictions (this stat may not work properly.
system.switch_cpus1.BPredUnit.usedRAS          218415                       # Number of times the RAS was used to get a target.
system.switch_cpus1.BPredUnit.RASInCorrect         6245                       # Number of incorrect RAS predictions.
system.switch_cpus1.fetch.icacheStallCycles      3762534                       # Number of cycles fetch is stalled on an Icache miss
system.switch_cpus1.fetch.Insts              17131654                       # Number of instructions fetch has processed
system.switch_cpus1.fetch.Branches            3085831                       # Number of branches that fetch encountered
system.switch_cpus1.fetch.predictedBranches      1709303                       # Number of branches that fetch has predicted taken
system.switch_cpus1.fetch.Cycles              3630904                       # Number of cycles fetch has run and was not squashing or blocked
system.switch_cpus1.fetch.SquashCycles         940636                       # Number of cycles fetch has spent squashing
system.switch_cpus1.fetch.BlockedCycles        397087                       # Number of cycles fetch has spent blocked
system.switch_cpus1.fetch.CacheLines          1850483                       # Number of cache lines fetched
system.switch_cpus1.fetch.IcacheSquashes        97296                       # Number of outstanding Icache misses that were squashed
system.switch_cpus1.fetch.rateDist::samples      8527389                       # Number of instructions fetched each cycle (Total)
system.switch_cpus1.fetch.rateDist::mean     2.317953                       # Number of instructions fetched each cycle (Total)
system.switch_cpus1.fetch.rateDist::stdev     3.292238                       # Number of instructions fetched each cycle (Total)
system.switch_cpus1.fetch.rateDist::underflows            0      0.00%      0.00% # Number of instructions fetched each cycle (Total)
system.switch_cpus1.fetch.rateDist::0         4896485     57.42%     57.42% # Number of instructions fetched each cycle (Total)
system.switch_cpus1.fetch.rateDist::1          647682      7.60%     65.02% # Number of instructions fetched each cycle (Total)
system.switch_cpus1.fetch.rateDist::2          320362      3.76%     68.77% # Number of instructions fetched each cycle (Total)
system.switch_cpus1.fetch.rateDist::3          237759      2.79%     71.56% # Number of instructions fetched each cycle (Total)
system.switch_cpus1.fetch.rateDist::4          196995      2.31%     73.87% # Number of instructions fetched each cycle (Total)
system.switch_cpus1.fetch.rateDist::5          171847      2.02%     75.89% # Number of instructions fetched each cycle (Total)
system.switch_cpus1.fetch.rateDist::6           59714      0.70%     76.59% # Number of instructions fetched each cycle (Total)
system.switch_cpus1.fetch.rateDist::7          213456      2.50%     79.09% # Number of instructions fetched each cycle (Total)
system.switch_cpus1.fetch.rateDist::8         1783089     20.91%    100.00% # Number of instructions fetched each cycle (Total)
system.switch_cpus1.fetch.rateDist::overflows            0      0.00%    100.00% # Number of instructions fetched each cycle (Total)
system.switch_cpus1.fetch.rateDist::min_value            0                       # Number of instructions fetched each cycle (Total)
system.switch_cpus1.fetch.rateDist::max_value            8                       # Number of instructions fetched each cycle (Total)
system.switch_cpus1.fetch.rateDist::total      8527389                       # Number of instructions fetched each cycle (Total)
system.switch_cpus1.fetch.branchRate         0.354381                       # Number of branch fetches per cycle
system.switch_cpus1.fetch.rate               1.967425                       # Number of inst fetches per cycle
system.switch_cpus1.decode.IdleCycles         3896059                       # Number of cycles decode is idle
system.switch_cpus1.decode.BlockedCycles       371404                       # Number of cycles decode is blocked
system.switch_cpus1.decode.RunCycles          3508494                       # Number of cycles decode is running
system.switch_cpus1.decode.UnblockCycles        17628                       # Number of cycles decode is unblocking
system.switch_cpus1.decode.SquashCycles        733800                       # Number of cycles decode is squashing
system.switch_cpus1.decode.BranchResolved       342389                       # Number of times decode resolved a branch
system.switch_cpus1.decode.BranchMispred         3089                       # Number of times decode detected a branch misprediction
system.switch_cpus1.decode.DecodedInsts      19174571                       # Number of instructions handled by decode
system.switch_cpus1.decode.SquashedInsts         4663                       # Number of squashed instructions handled by decode
system.switch_cpus1.rename.SquashCycles        733800                       # Number of cycles rename is squashing
system.switch_cpus1.rename.IdleCycles         4059322                       # Number of cycles rename is idle
system.switch_cpus1.rename.BlockCycles         170792                       # Number of cycles rename is blocking
system.switch_cpus1.rename.serializeStallCycles        44424                       # count of cycles rename stalled for serializing inst
system.switch_cpus1.rename.RunCycles          3361376                       # Number of cycles rename is running
system.switch_cpus1.rename.UnblockCycles       157671                       # Number of cycles rename is unblocking
system.switch_cpus1.rename.RenamedInsts      18570451                       # Number of instructions processed by rename
system.switch_cpus1.rename.ROBFullEvents           27                       # Number of times rename has blocked due to ROB full
system.switch_cpus1.rename.IQFullEvents         77228                       # Number of times rename has blocked due to IQ full
system.switch_cpus1.rename.LSQFullEvents        66809                       # Number of times rename has blocked due to LSQ full
system.switch_cpus1.rename.RenamedOperands     24625877                       # Number of destination operands rename has renamed
system.switch_cpus1.rename.RenameLookups     84595096                       # Number of register rename lookups that rename has made
system.switch_cpus1.rename.int_rename_lookups     84595096                       # Number of integer rename lookups
system.switch_cpus1.rename.CommittedMaps     16203060                       # Number of HB maps that are committed
system.switch_cpus1.rename.UndoneMaps         8422795                       # Number of HB maps that are undone due to squashing
system.switch_cpus1.rename.serializingInsts         2362                       # count of serializing insts renamed
system.switch_cpus1.rename.tempSerializingInsts         1268                       # count of temporary serializing insts renamed
system.switch_cpus1.rename.skidInsts           399902                       # count of insts added to the skid buffer
system.switch_cpus1.memDep0.insertedLoads      2822118                       # Number of loads inserted to the mem dependence unit.
system.switch_cpus1.memDep0.insertedStores       649598                       # Number of stores inserted to the mem dependence unit.
system.switch_cpus1.memDep0.conflictingLoads         8219                       # Number of conflicting loads.
system.switch_cpus1.memDep0.conflictingStores       274786                       # Number of conflicting stores.
system.switch_cpus1.iq.iqInstsAdded          17477065                       # Number of instructions added to the IQ (excludes non-spec)
system.switch_cpus1.iq.iqNonSpecInstsAdded         2370                       # Number of non-speculative instructions added to the IQ
system.switch_cpus1.iq.iqInstsIssued         14909707                       # Number of instructions issued
system.switch_cpus1.iq.iqSquashedInstsIssued        19316                       # Number of squashed instructions issued
system.switch_cpus1.iq.iqSquashedInstsExamined      5007107                       # Number of squashed instructions iterated over during squash; mainly for profiling
system.switch_cpus1.iq.iqSquashedOperandsExamined     13684304                       # Number of squashed operands that are examined and possibly removed from graph
system.switch_cpus1.iq.iqSquashedNonSpecRemoved          140                       # Number of squashed non-spec instructions that were removed
system.switch_cpus1.iq.issued_per_cycle::samples      8527389                       # Number of insts issued each cycle
system.switch_cpus1.iq.issued_per_cycle::mean     1.748449                       # Number of insts issued each cycle
system.switch_cpus1.iq.issued_per_cycle::stdev     1.854755                       # Number of insts issued each cycle
system.switch_cpus1.iq.issued_per_cycle::underflows            0      0.00%      0.00% # Number of insts issued each cycle
system.switch_cpus1.iq.issued_per_cycle::0      3036280     35.61%     35.61% # Number of insts issued each cycle
system.switch_cpus1.iq.issued_per_cycle::1      1807375     21.19%     56.80% # Number of insts issued each cycle
system.switch_cpus1.iq.issued_per_cycle::2       956582     11.22%     68.02% # Number of insts issued each cycle
system.switch_cpus1.iq.issued_per_cycle::3      1079882     12.66%     80.68% # Number of insts issued each cycle
system.switch_cpus1.iq.issued_per_cycle::4       793155      9.30%     89.98% # Number of insts issued each cycle
system.switch_cpus1.iq.issued_per_cycle::5       516071      6.05%     96.04% # Number of insts issued each cycle
system.switch_cpus1.iq.issued_per_cycle::6       220720      2.59%     98.62% # Number of insts issued each cycle
system.switch_cpus1.iq.issued_per_cycle::7        66365      0.78%     99.40% # Number of insts issued each cycle
system.switch_cpus1.iq.issued_per_cycle::8        50959      0.60%    100.00% # Number of insts issued each cycle
system.switch_cpus1.iq.issued_per_cycle::overflows            0      0.00%    100.00% # Number of insts issued each cycle
system.switch_cpus1.iq.issued_per_cycle::min_value            0                       # Number of insts issued each cycle
system.switch_cpus1.iq.issued_per_cycle::max_value            8                       # Number of insts issued each cycle
system.switch_cpus1.iq.issued_per_cycle::total      8527389                       # Number of insts issued each cycle
system.switch_cpus1.iq.fu_full::No_OpClass            0      0.00%      0.00% # attempts to use FU when none available
system.switch_cpus1.iq.fu_full::IntAlu          63812     73.85%     73.85% # attempts to use FU when none available
system.switch_cpus1.iq.fu_full::IntMult             0      0.00%     73.85% # attempts to use FU when none available
system.switch_cpus1.iq.fu_full::IntDiv              0      0.00%     73.85% # attempts to use FU when none available
system.switch_cpus1.iq.fu_full::FloatAdd            0      0.00%     73.85% # attempts to use FU when none available
system.switch_cpus1.iq.fu_full::FloatCmp            0      0.00%     73.85% # attempts to use FU when none available
system.switch_cpus1.iq.fu_full::FloatCvt            0      0.00%     73.85% # attempts to use FU when none available
system.switch_cpus1.iq.fu_full::FloatMult            0      0.00%     73.85% # attempts to use FU when none available
system.switch_cpus1.iq.fu_full::FloatDiv            0      0.00%     73.85% # attempts to use FU when none available
system.switch_cpus1.iq.fu_full::FloatSqrt            0      0.00%     73.85% # attempts to use FU when none available
system.switch_cpus1.iq.fu_full::SimdAdd             0      0.00%     73.85% # attempts to use FU when none available
system.switch_cpus1.iq.fu_full::SimdAddAcc            0      0.00%     73.85% # attempts to use FU when none available
system.switch_cpus1.iq.fu_full::SimdAlu             0      0.00%     73.85% # attempts to use FU when none available
system.switch_cpus1.iq.fu_full::SimdCmp             0      0.00%     73.85% # attempts to use FU when none available
system.switch_cpus1.iq.fu_full::SimdCvt             0      0.00%     73.85% # attempts to use FU when none available
system.switch_cpus1.iq.fu_full::SimdMisc            0      0.00%     73.85% # attempts to use FU when none available
system.switch_cpus1.iq.fu_full::SimdMult            0      0.00%     73.85% # attempts to use FU when none available
system.switch_cpus1.iq.fu_full::SimdMultAcc            0      0.00%     73.85% # attempts to use FU when none available
system.switch_cpus1.iq.fu_full::SimdShift            0      0.00%     73.85% # attempts to use FU when none available
system.switch_cpus1.iq.fu_full::SimdShiftAcc            0      0.00%     73.85% # attempts to use FU when none available
system.switch_cpus1.iq.fu_full::SimdSqrt            0      0.00%     73.85% # attempts to use FU when none available
system.switch_cpus1.iq.fu_full::SimdFloatAdd            0      0.00%     73.85% # attempts to use FU when none available
system.switch_cpus1.iq.fu_full::SimdFloatAlu            0      0.00%     73.85% # attempts to use FU when none available
system.switch_cpus1.iq.fu_full::SimdFloatCmp            0      0.00%     73.85% # attempts to use FU when none available
system.switch_cpus1.iq.fu_full::SimdFloatCvt            0      0.00%     73.85% # attempts to use FU when none available
system.switch_cpus1.iq.fu_full::SimdFloatDiv            0      0.00%     73.85% # attempts to use FU when none available
system.switch_cpus1.iq.fu_full::SimdFloatMisc            0      0.00%     73.85% # attempts to use FU when none available
system.switch_cpus1.iq.fu_full::SimdFloatMult            0      0.00%     73.85% # attempts to use FU when none available
system.switch_cpus1.iq.fu_full::SimdFloatMultAcc            0      0.00%     73.85% # attempts to use FU when none available
system.switch_cpus1.iq.fu_full::SimdFloatSqrt            0      0.00%     73.85% # attempts to use FU when none available
system.switch_cpus1.iq.fu_full::MemRead         13057     15.11%     88.96% # attempts to use FU when none available
system.switch_cpus1.iq.fu_full::MemWrite         9536     11.04%    100.00% # attempts to use FU when none available
system.switch_cpus1.iq.fu_full::IprAccess            0      0.00%    100.00% # attempts to use FU when none available
system.switch_cpus1.iq.fu_full::InstPrefetch            0      0.00%    100.00% # attempts to use FU when none available
system.switch_cpus1.iq.FU_type_0::No_OpClass            0      0.00%      0.00% # Type of FU issued
system.switch_cpus1.iq.FU_type_0::IntAlu     11717970     78.59%     78.59% # Type of FU issued
system.switch_cpus1.iq.FU_type_0::IntMult       119522      0.80%     79.39% # Type of FU issued
system.switch_cpus1.iq.FU_type_0::IntDiv            0      0.00%     79.39% # Type of FU issued
system.switch_cpus1.iq.FU_type_0::FloatAdd            0      0.00%     79.39% # Type of FU issued
system.switch_cpus1.iq.FU_type_0::FloatCmp            0      0.00%     79.39% # Type of FU issued
system.switch_cpus1.iq.FU_type_0::FloatCvt            0      0.00%     79.39% # Type of FU issued
system.switch_cpus1.iq.FU_type_0::FloatMult            0      0.00%     79.39% # Type of FU issued
system.switch_cpus1.iq.FU_type_0::FloatDiv            0      0.00%     79.39% # Type of FU issued
system.switch_cpus1.iq.FU_type_0::FloatSqrt            0      0.00%     79.39% # Type of FU issued
system.switch_cpus1.iq.FU_type_0::SimdAdd            0      0.00%     79.39% # Type of FU issued
system.switch_cpus1.iq.FU_type_0::SimdAddAcc            0      0.00%     79.39% # Type of FU issued
system.switch_cpus1.iq.FU_type_0::SimdAlu            0      0.00%     79.39% # Type of FU issued
system.switch_cpus1.iq.FU_type_0::SimdCmp            0      0.00%     79.39% # Type of FU issued
system.switch_cpus1.iq.FU_type_0::SimdCvt            0      0.00%     79.39% # Type of FU issued
system.switch_cpus1.iq.FU_type_0::SimdMisc            0      0.00%     79.39% # Type of FU issued
system.switch_cpus1.iq.FU_type_0::SimdMult            0      0.00%     79.39% # Type of FU issued
system.switch_cpus1.iq.FU_type_0::SimdMultAcc            0      0.00%     79.39% # Type of FU issued
system.switch_cpus1.iq.FU_type_0::SimdShift            0      0.00%     79.39% # Type of FU issued
system.switch_cpus1.iq.FU_type_0::SimdShiftAcc            0      0.00%     79.39% # Type of FU issued
system.switch_cpus1.iq.FU_type_0::SimdSqrt            0      0.00%     79.39% # Type of FU issued
system.switch_cpus1.iq.FU_type_0::SimdFloatAdd            0      0.00%     79.39% # Type of FU issued
system.switch_cpus1.iq.FU_type_0::SimdFloatAlu            0      0.00%     79.39% # Type of FU issued
system.switch_cpus1.iq.FU_type_0::SimdFloatCmp            0      0.00%     79.39% # Type of FU issued
system.switch_cpus1.iq.FU_type_0::SimdFloatCvt            0      0.00%     79.39% # Type of FU issued
system.switch_cpus1.iq.FU_type_0::SimdFloatDiv            0      0.00%     79.39% # Type of FU issued
system.switch_cpus1.iq.FU_type_0::SimdFloatMisc         1091      0.01%     79.40% # Type of FU issued
system.switch_cpus1.iq.FU_type_0::SimdFloatMult            0      0.00%     79.40% # Type of FU issued
system.switch_cpus1.iq.FU_type_0::SimdFloatMultAcc            0      0.00%     79.40% # Type of FU issued
system.switch_cpus1.iq.FU_type_0::SimdFloatSqrt            0      0.00%     79.40% # Type of FU issued
system.switch_cpus1.iq.FU_type_0::MemRead      2538656     17.03%     96.43% # Type of FU issued
system.switch_cpus1.iq.FU_type_0::MemWrite       532468      3.57%    100.00% # Type of FU issued
system.switch_cpus1.iq.FU_type_0::IprAccess            0      0.00%    100.00% # Type of FU issued
system.switch_cpus1.iq.FU_type_0::InstPrefetch            0      0.00%    100.00% # Type of FU issued
system.switch_cpus1.iq.FU_type_0::total      14909707                       # Type of FU issued
system.switch_cpus1.iq.rate                  1.712253                       # Inst issue rate
system.switch_cpus1.iq.fu_busy_cnt              86405                       # FU busy when requested
system.switch_cpus1.iq.fu_busy_rate          0.005795                       # FU busy rate (busy events/executed inst)
system.switch_cpus1.iq.int_inst_queue_reads     38452519                       # Number of integer instruction queue reads
system.switch_cpus1.iq.int_inst_queue_writes     22486653                       # Number of integer instruction queue writes
system.switch_cpus1.iq.int_inst_queue_wakeup_accesses     14396842                       # Number of integer instruction queue wakeup accesses
system.switch_cpus1.iq.fp_inst_queue_reads            0                       # Number of floating instruction queue reads
system.switch_cpus1.iq.fp_inst_queue_writes            0                       # Number of floating instruction queue writes
system.switch_cpus1.iq.fp_inst_queue_wakeup_accesses            0                       # Number of floating instruction queue wakeup accesses
system.switch_cpus1.iq.int_alu_accesses      14996112                       # Number of integer alu accesses
system.switch_cpus1.iq.fp_alu_accesses              0                       # Number of floating point alu accesses
system.switch_cpus1.iew.lsq.thread0.forwLoads        24202                       # Number of loads that had data forwarded from stores
system.switch_cpus1.iew.lsq.thread0.invAddrLoads            0                       # Number of loads ignored due to an invalid address
system.switch_cpus1.iew.lsq.thread0.squashedLoads       783136                       # Number of loads squashed
system.switch_cpus1.iew.lsq.thread0.ignoredResponses          111                       # Number of memory responses ignored because the instruction is squashed
system.switch_cpus1.iew.lsq.thread0.memOrderViolation          115                       # Number of memory ordering violations
system.switch_cpus1.iew.lsq.thread0.squashedStores       169866                       # Number of stores squashed
system.switch_cpus1.iew.lsq.thread0.invAddrSwpfs            0                       # Number of software prefetches ignored due to an invalid address
system.switch_cpus1.iew.lsq.thread0.blockedLoads            0                       # Number of blocked loads due to partial load-store forwarding
system.switch_cpus1.iew.lsq.thread0.rescheduledLoads            0                       # Number of loads that were rescheduled
system.switch_cpus1.iew.lsq.thread0.cacheBlocked            0                       # Number of times an access to memory failed due to the cache being blocked
system.switch_cpus1.iew.iewIdleCycles               0                       # Number of cycles IEW is idle
system.switch_cpus1.iew.iewSquashCycles        733800                       # Number of cycles IEW is squashing
system.switch_cpus1.iew.iewBlockCycles          98975                       # Number of cycles IEW is blocking
system.switch_cpus1.iew.iewUnblockCycles         8264                       # Number of cycles IEW is unblocking
system.switch_cpus1.iew.iewDispatchedInsts     17479435                       # Number of instructions dispatched to IQ
system.switch_cpus1.iew.iewDispSquashedInsts        69072                       # Number of squashed instructions skipped by dispatch
system.switch_cpus1.iew.iewDispLoadInsts      2822118                       # Number of dispatched load instructions
system.switch_cpus1.iew.iewDispStoreInsts       649598                       # Number of dispatched store instructions
system.switch_cpus1.iew.iewDispNonSpecInsts         1257                       # Number of dispatched non-speculative instructions
system.switch_cpus1.iew.iewIQFullEvents          4269                       # Number of times the IQ has become full, causing a stall
system.switch_cpus1.iew.iewLSQFullEvents           52                       # Number of times the LSQ has become full, causing a stall
system.switch_cpus1.iew.memOrderViolationEvents          115                       # Number of memory order violations
system.switch_cpus1.iew.predictedTakenIncorrect       102724                       # Number of branches that were predicted taken incorrectly
system.switch_cpus1.iew.predictedNotTakenIncorrect       118974                       # Number of branches that were predicted not taken incorrectly
system.switch_cpus1.iew.branchMispredicts       221698                       # Number of branch mispredicts detected at execute
system.switch_cpus1.iew.iewExecutedInsts     14588784                       # Number of executed instructions
system.switch_cpus1.iew.iewExecLoadInsts      2428958                       # Number of load instructions executed
system.switch_cpus1.iew.iewExecSquashedInsts       320918                       # Number of squashed instructions skipped in execute
system.switch_cpus1.iew.exec_swp                    0                       # number of swp insts executed
system.switch_cpus1.iew.exec_nop                    0                       # number of nop insts executed
system.switch_cpus1.iew.exec_refs             2948064                       # number of memory reference insts executed
system.switch_cpus1.iew.exec_branches         2185814                       # Number of branches executed
system.switch_cpus1.iew.exec_stores            519106                       # Number of stores executed
system.switch_cpus1.iew.exec_rate            1.675398                       # Inst execution rate
system.switch_cpus1.iew.wb_sent              14423849                       # cumulative count of insts sent to commit
system.switch_cpus1.iew.wb_count             14396842                       # cumulative count of insts written-back
system.switch_cpus1.iew.wb_producers          8676615                       # num instructions producing a value
system.switch_cpus1.iew.wb_consumers         21433684                       # num instructions consuming a value
system.switch_cpus1.iew.wb_penalized                0                       # number of instrctions required to write to 'other' IQ
system.switch_cpus1.iew.wb_rate              1.653355                       # insts written-back per cycle
system.switch_cpus1.iew.wb_fanout            0.404812                       # average fanout of values written-back
system.switch_cpus1.iew.wb_penalized_rate            0                       # fraction of instructions written-back that wrote to 'other' IQ
system.switch_cpus1.commit.commitCommittedInsts     10850857                       # The number of committed instructions
system.switch_cpus1.commit.commitCommittedOps     12350034                       # The number of committed instructions
system.switch_cpus1.commit.commitSquashedInsts      5129566                       # The number of squashed insts skipped by commit
system.switch_cpus1.commit.commitNonSpecStalls         2230                       # The number of times commit has been forced to stall to communicate backwards
system.switch_cpus1.commit.branchMispredicts       200621                       # The number of times a branch was mispredicted
system.switch_cpus1.commit.committed_per_cycle::samples      7793589                       # Number of insts commited each cycle
[...]
system.cpu3.icache.ReadReq_avg_miss_latency::total 48490.648148                       # average ReadReq miss latency
system.cpu3.icache.demand_avg_miss_latency::switch_cpus3.inst 48490.648148                       # average overall miss latency
system.cpu3.icache.demand_avg_miss_latency::total 48490.648148                       # average overall miss latency
system.cpu3.icache.overall_avg_miss_latency::switch_cpus3.inst 48490.648148                       # average overall miss latency
system.cpu3.icache.overall_avg_miss_latency::total 48490.648148                       # average overall miss latency
system.cpu3.icache.blocked_cycles::no_mshrs            0                       # number of cycles access was blocked
system.cpu3.icache.blocked_cycles::no_targets            0                       # number of cycles access was blocked
system.cpu3.icache.blocked::no_mshrs                0                       # number of cycles access was blocked
system.cpu3.icache.blocked::no_targets              0                       # number of cycles access was blocked
system.cpu3.icache.avg_blocked_cycles::no_mshrs          nan                       # average number of cycles each access was blocked
system.cpu3.icache.avg_blocked_cycles::no_targets          nan                       # average number of cycles each access was blocked
system.cpu3.icache.fast_writes                      0                       # number of fast writes performed
system.cpu3.icache.cache_copies                     0                       # number of cache copies performed
system.cpu3.icache.ReadReq_mshr_hits::switch_cpus3.inst           12                       # number of ReadReq MSHR hits
system.cpu3.icache.ReadReq_mshr_hits::total           12                       # number of ReadReq MSHR hits
system.cpu3.icache.demand_mshr_hits::switch_cpus3.inst           12                       # number of demand (read+write) MSHR hits
system.cpu3.icache.demand_mshr_hits::total           12                       # number of demand (read+write) MSHR hits
system.cpu3.icache.overall_mshr_hits::switch_cpus3.inst           12                       # number of overall MSHR hits
system.cpu3.icache.overall_mshr_hits::total           12                       # number of overall MSHR hits
system.cpu3.icache.ReadReq_mshr_misses::switch_cpus3.inst           42                       # number of ReadReq MSHR misses
system.cpu3.icache.ReadReq_mshr_misses::total           42                       # number of ReadReq MSHR misses
system.cpu3.icache.demand_mshr_misses::switch_cpus3.inst           42                       # number of demand (read+write) MSHR misses
system.cpu3.icache.demand_mshr_misses::total           42                       # number of demand (read+write) MSHR misses
system.cpu3.icache.overall_mshr_misses::switch_cpus3.inst           42                       # number of overall MSHR misses
system.cpu3.icache.overall_mshr_misses::total           42                       # number of overall MSHR misses
system.cpu3.icache.ReadReq_mshr_miss_latency::switch_cpus3.inst      2030710                       # number of ReadReq MSHR miss cycles
system.cpu3.icache.ReadReq_mshr_miss_latency::total      2030710                       # number of ReadReq MSHR miss cycles
system.cpu3.icache.demand_mshr_miss_latency::switch_cpus3.inst      2030710                       # number of demand (read+write) MSHR miss cycles
system.cpu3.icache.demand_mshr_miss_latency::total      2030710                       # number of demand (read+write) MSHR miss cycles
system.cpu3.icache.overall_mshr_miss_latency::switch_cpus3.inst      2030710                       # number of overall MSHR miss cycles
system.cpu3.icache.overall_mshr_miss_latency::total      2030710                       # number of overall MSHR miss cycles
system.cpu3.icache.ReadReq_mshr_miss_rate::switch_cpus3.inst     0.000028                       # mshr miss rate for ReadReq accesses
system.cpu3.icache.ReadReq_mshr_miss_rate::total     0.000028                       # mshr miss rate for ReadReq accesses
system.cpu3.icache.demand_mshr_miss_rate::switch_cpus3.inst     0.000028                       # mshr miss rate for demand accesses
system.cpu3.icache.demand_mshr_miss_rate::total     0.000028                       # mshr miss rate for demand accesses
system.cpu3.icache.overall_mshr_miss_rate::switch_cpus3.inst     0.000028                       # mshr miss rate for overall accesses
system.cpu3.icache.overall_mshr_miss_rate::total     0.000028                       # mshr miss rate for overall accesses
system.cpu3.icache.ReadReq_avg_mshr_miss_latency::switch_cpus3.inst 48350.238095                       # average ReadReq mshr miss latency
system.cpu3.icache.ReadReq_avg_mshr_miss_latency::total 48350.238095                       # average ReadReq mshr miss latency
system.cpu3.icache.demand_avg_mshr_miss_latency::switch_cpus3.inst 48350.238095                       # average overall mshr miss latency
system.cpu3.icache.demand_avg_mshr_miss_latency::total 48350.238095                       # average overall mshr miss latency
system.cpu3.icache.overall_avg_mshr_miss_latency::switch_cpus3.inst 48350.238095                       # average overall mshr miss latency
system.cpu3.icache.overall_avg_mshr_miss_latency::total 48350.238095                       # average overall mshr miss latency
system.cpu3.icache.no_allocate_misses               0                       # Number of misses that were no-allocate
system.cpu3.dcache.replacements                  5647                       # number of replacements
system.cpu3.dcache.tagsinuse                      256                       # Cycle average of tags in use
system.cpu3.dcache.total_refs               158200775                       # Total number of references to valid blocks.
system.cpu3.dcache.sampled_refs                  5903                       # Sample count of references to valid blocks.
system.cpu3.dcache.avg_refs              26800.063527                       # Average number of references to valid blocks.
system.cpu3.dcache.warmup_cycle                     0                       # Cycle when the warmup percentage was hit.
system.cpu3.dcache.occ_blocks::switch_cpus3.data   225.821316                       # Average occupied blocks per requestor
system.cpu3.dcache.occ_blocks::cpu3.data    30.178684                       # Average occupied blocks per requestor
system.cpu3.dcache.occ_percent::switch_cpus3.data     0.882115                       # Average percentage of cache occupancy
system.cpu3.dcache.occ_percent::cpu3.data     0.117885                       # Average percentage of cache occupancy
system.cpu3.dcache.occ_percent::total               1                       # Average percentage of cache occupancy
system.cpu3.dcache.ReadReq_hits::switch_cpus3.data      1060574                       # number of ReadReq hits
system.cpu3.dcache.ReadReq_hits::total        1060574                       # number of ReadReq hits
system.cpu3.dcache.WriteReq_hits::switch_cpus3.data       723072                       # number of WriteReq hits
system.cpu3.dcache.WriteReq_hits::total        723072                       # number of WriteReq hits
system.cpu3.dcache.LoadLockedReq_hits::switch_cpus3.data         1827                       # number of LoadLockedReq hits
system.cpu3.dcache.LoadLockedReq_hits::total         1827                       # number of LoadLockedReq hits
system.cpu3.dcache.StoreCondReq_hits::switch_cpus3.data         1701                       # number of StoreCondReq hits
system.cpu3.dcache.StoreCondReq_hits::total         1701                       # number of StoreCondReq hits
system.cpu3.dcache.demand_hits::switch_cpus3.data      1783646                       # number of demand (read+write) hits
system.cpu3.dcache.demand_hits::total         1783646                       # number of demand (read+write) hits
system.cpu3.dcache.overall_hits::switch_cpus3.data      1783646                       # number of overall hits
system.cpu3.dcache.overall_hits::total        1783646                       # number of overall hits
system.cpu3.dcache.ReadReq_misses::switch_cpus3.data        14717                       # number of ReadReq misses
system.cpu3.dcache.ReadReq_misses::total        14717                       # number of ReadReq misses
system.cpu3.dcache.WriteReq_misses::switch_cpus3.data          456                       # number of WriteReq misses
system.cpu3.dcache.WriteReq_misses::total          456                       # number of WriteReq misses
system.cpu3.dcache.demand_misses::switch_cpus3.data        15173                       # number of demand (read+write) misses
system.cpu3.dcache.demand_misses::total         15173                       # number of demand (read+write) misses
system.cpu3.dcache.overall_misses::switch_cpus3.data        15173                       # number of overall misses
system.cpu3.dcache.overall_misses::total        15173                       # number of overall misses
system.cpu3.dcache.ReadReq_miss_latency::switch_cpus3.data    644410845                       # number of ReadReq miss cycles
system.cpu3.dcache.ReadReq_miss_latency::total    644410845                       # number of ReadReq miss cycles
system.cpu3.dcache.WriteReq_miss_latency::switch_cpus3.data     19295073                       # number of WriteReq miss cycles
system.cpu3.dcache.WriteReq_miss_latency::total     19295073                       # number of WriteReq miss cycles
system.cpu3.dcache.demand_miss_latency::switch_cpus3.data    663705918                       # number of demand (read+write) miss cycles
system.cpu3.dcache.demand_miss_latency::total    663705918                       # number of demand (read+write) miss cycles
system.cpu3.dcache.overall_miss_latency::switch_cpus3.data    663705918                       # number of overall miss cycles
system.cpu3.dcache.overall_miss_latency::total    663705918                       # number of overall miss cycles
system.cpu3.dcache.ReadReq_accesses::switch_cpus3.data      1075291                       # number of ReadReq accesses(hits+misses)
system.cpu3.dcache.ReadReq_accesses::total      1075291                       # number of ReadReq accesses(hits+misses)
system.cpu3.dcache.WriteReq_accesses::switch_cpus3.data       723528                       # number of WriteReq accesses(hits+misses)
system.cpu3.dcache.WriteReq_accesses::total       723528                       # number of WriteReq accesses(hits+misses)
system.cpu3.dcache.LoadLockedReq_accesses::switch_cpus3.data         1827                       # number of LoadLockedReq accesses(hits+misses)
system.cpu3.dcache.LoadLockedReq_accesses::total         1827                       # number of LoadLockedReq accesses(hits+misses)
system.cpu3.dcache.StoreCondReq_accesses::switch_cpus3.data         1701                       # number of StoreCondReq accesses(hits+misses)
system.cpu3.dcache.StoreCondReq_accesses::total         1701                       # number of StoreCondReq accesses(hits+misses)
system.cpu3.dcache.demand_accesses::switch_cpus3.data      1798819                       # number of demand (read+write) accesses
system.cpu3.dcache.demand_accesses::total      1798819                       # number of demand (read+write) accesses
system.cpu3.dcache.overall_accesses::switch_cpus3.data      1798819                       # number of overall (read+write) accesses
system.cpu3.dcache.overall_accesses::total      1798819                       # number of overall (read+write) accesses
system.cpu3.dcache.ReadReq_miss_rate::switch_cpus3.data     0.013687                       # miss rate for ReadReq accesses
system.cpu3.dcache.ReadReq_miss_rate::total     0.013687                       # miss rate for ReadReq accesses
system.cpu3.dcache.WriteReq_miss_rate::switch_cpus3.data     0.000630                       # miss rate for WriteReq accesses
system.cpu3.dcache.WriteReq_miss_rate::total     0.000630                       # miss rate for WriteReq accesses
system.cpu3.dcache.demand_miss_rate::switch_cpus3.data     0.008435                       # miss rate for demand accesses
system.cpu3.dcache.demand_miss_rate::total     0.008435                       # miss rate for demand accesses
system.cpu3.dcache.overall_miss_rate::switch_cpus3.data     0.008435                       # miss rate for overall accesses
system.cpu3.dcache.overall_miss_rate::total     0.008435                       # miss rate for overall accesses
system.cpu3.dcache.ReadReq_avg_miss_latency::switch_cpus3.data 43786.834613                       # average ReadReq miss latency
system.cpu3.dcache.ReadReq_avg_miss_latency::total 43786.834613                       # average ReadReq miss latency
system.cpu3.dcache.WriteReq_avg_miss_latency::switch_cpus3.data 42313.756579                       # average WriteReq miss latency
system.cpu3.dcache.WriteReq_avg_miss_latency::total 42313.756579                       # average WriteReq miss latency
system.cpu3.dcache.demand_avg_miss_latency::switch_cpus3.data 43742.563633                       # average overall miss latency
system.cpu3.dcache.demand_avg_miss_latency::total 43742.563633                       # average overall miss latency
system.cpu3.dcache.overall_avg_miss_latency::switch_cpus3.data 43742.563633                       # average overall miss latency
system.cpu3.dcache.overall_avg_miss_latency::total 43742.563633                       # average overall miss latency
system.cpu3.dcache.blocked_cycles::no_mshrs            0                       # number of cycles access was blocked
system.cpu3.dcache.blocked_cycles::no_targets            0                       # number of cycles access was blocked
system.cpu3.dcache.blocked::no_mshrs                0                       # number of cycles access was blocked
system.cpu3.dcache.blocked::no_targets              0                       # number of cycles access was blocked
system.cpu3.dcache.avg_blocked_cycles::no_mshrs          nan                       # average number of cycles each access was blocked
system.cpu3.dcache.avg_blocked_cycles::no_targets          nan                       # average number of cycles each access was blocked
system.cpu3.dcache.fast_writes                      0                       # number of fast writes performed
system.cpu3.dcache.cache_copies                     0                       # number of cache copies performed
system.cpu3.dcache.writebacks::writebacks         1773                       # number of writebacks
system.cpu3.dcache.writebacks::total             1773                       # number of writebacks
system.cpu3.dcache.ReadReq_mshr_hits::switch_cpus3.data         9123                       # number of ReadReq MSHR hits
system.cpu3.dcache.ReadReq_mshr_hits::total         9123                       # number of ReadReq MSHR hits
system.cpu3.dcache.WriteReq_mshr_hits::switch_cpus3.data          403                       # number of WriteReq MSHR hits
system.cpu3.dcache.WriteReq_mshr_hits::total          403                       # number of WriteReq MSHR hits
system.cpu3.dcache.demand_mshr_hits::switch_cpus3.data         9526                       # number of demand (read+write) MSHR hits
system.cpu3.dcache.demand_mshr_hits::total         9526                       # number of demand (read+write) MSHR hits
system.cpu3.dcache.overall_mshr_hits::switch_cpus3.data         9526                       # number of overall MSHR hits
system.cpu3.dcache.overall_mshr_hits::total         9526                       # number of overall MSHR hits
system.cpu3.dcache.ReadReq_mshr_misses::switch_cpus3.data         5594                       # number of ReadReq MSHR misses
system.cpu3.dcache.ReadReq_mshr_misses::total         5594                       # number of ReadReq MSHR misses
system.cpu3.dcache.WriteReq_mshr_misses::switch_cpus3.data           53                       # number of WriteReq MSHR misses
system.cpu3.dcache.WriteReq_mshr_misses::total           53                       # number of WriteReq MSHR misses
system.cpu3.dcache.demand_mshr_misses::switch_cpus3.data         5647                       # number of demand (read+write) MSHR misses
system.cpu3.dcache.demand_mshr_misses::total         5647                       # number of demand (read+write) MSHR misses
system.cpu3.dcache.overall_mshr_misses::switch_cpus3.data         5647                       # number of overall MSHR misses
system.cpu3.dcache.overall_mshr_misses::total         5647                       # number of overall MSHR misses
system.cpu3.dcache.ReadReq_mshr_miss_latency::switch_cpus3.data    161675472                       # number of ReadReq MSHR miss cycles
system.cpu3.dcache.ReadReq_mshr_miss_latency::total    161675472                       # number of ReadReq MSHR miss cycles
system.cpu3.dcache.WriteReq_mshr_miss_latency::switch_cpus3.data      1196526                       # number of WriteReq MSHR miss cycles
system.cpu3.dcache.WriteReq_mshr_miss_latency::total      1196526                       # number of WriteReq MSHR miss cycles
system.cpu3.dcache.demand_mshr_miss_latency::switch_cpus3.data    162871998                       # number of demand (read+write) MSHR miss cycles
system.cpu3.dcache.demand_mshr_miss_latency::total    162871998                       # number of demand (read+write) MSHR miss cycles
system.cpu3.dcache.overall_mshr_miss_latency::switch_cpus3.data    162871998                       # number of overall MSHR miss cycles
system.cpu3.dcache.overall_mshr_miss_latency::total    162871998                       # number of overall MSHR miss cycles
system.cpu3.dcache.ReadReq_mshr_miss_rate::switch_cpus3.data     0.005202                       # mshr miss rate for ReadReq accesses
system.cpu3.dcache.ReadReq_mshr_miss_rate::total     0.005202                       # mshr miss rate for ReadReq accesses
system.cpu3.dcache.WriteReq_mshr_miss_rate::switch_cpus3.data     0.000073                       # mshr miss rate for WriteReq accesses
system.cpu3.dcache.WriteReq_mshr_miss_rate::total     0.000073                       # mshr miss rate for WriteReq accesses
system.cpu3.dcache.demand_mshr_miss_rate::switch_cpus3.data     0.003139                       # mshr miss rate for demand accesses
system.cpu3.dcache.demand_mshr_miss_rate::total     0.003139                       # mshr miss rate for demand accesses
system.cpu3.dcache.overall_mshr_miss_rate::switch_cpus3.data     0.003139                       # mshr miss rate for overall accesses
system.cpu3.dcache.overall_mshr_miss_rate::total     0.003139                       # mshr miss rate for overall accesses
system.cpu3.dcache.ReadReq_avg_mshr_miss_latency::switch_cpus3.data 28901.585985                       # average ReadReq mshr miss latency
system.cpu3.dcache.ReadReq_avg_mshr_miss_latency::total 28901.585985                       # average ReadReq mshr miss latency
system.cpu3.dcache.WriteReq_avg_mshr_miss_latency::switch_cpus3.data 22575.962264                       # average WriteReq mshr miss latency
system.cpu3.dcache.WriteReq_avg_mshr_miss_latency::total 22575.962264                       # average WriteReq mshr miss latency
system.cpu3.dcache.demand_avg_mshr_miss_latency::switch_cpus3.data 28842.216752                       # average overall mshr miss latency
system.cpu3.dcache.demand_avg_mshr_miss_latency::total 28842.216752                       # average overall mshr miss latency
system.cpu3.dcache.overall_avg_mshr_miss_latency::switch_cpus3.data 28842.216752                       # average overall mshr miss latency
system.cpu3.dcache.overall_avg_mshr_miss_latency::total 28842.216752                       # average overall mshr miss latency
system.cpu3.dcache.no_allocate_misses               0                       # Number of misses that were no-allocate

---------- End Simulation Statistics   ----------
