
---------- Begin Simulation Statistics ----------
sim_seconds                                  0.010623                       # Number of seconds simulated
sim_ticks                                 10623102939                       # Number of ticks simulated
final_tick                               535450696476                       # Number of ticks from beginning of simulation (restored from checkpoints and never reset)
sim_freq                                 1000000000000                       # Frequency of simulated ticks
host_inst_rate                                 192084                       # Simulator instruction rate (inst/s)
host_op_rate                                   244204                       # Simulator op (including micro ops) rate (op/s)
host_tick_rate                                 255165                       # Simulator tick rate (ticks/s)
host_mem_usage                               67341348                       # Number of bytes of host memory used
host_seconds                                 41632.37                       # Real time elapsed on the host
sim_insts                                  7996898142                       # Number of instructions simulated
sim_ops                                   10166780017                       # Number of ops (including micro ops) simulated
system.physmem.bytes_read::switch_cpus0.inst         4480                       # Number of bytes read from this memory
system.physmem.bytes_read::switch_cpus0.data       273024                       # Number of bytes read from this memory
system.physmem.bytes_read::switch_cpus1.inst         4608                       # Number of bytes read from this memory
system.physmem.bytes_read::switch_cpus1.data       174976                       # Number of bytes read from this memory
system.physmem.bytes_read::switch_cpus2.inst         4608                       # Number of bytes read from this memory
system.physmem.bytes_read::switch_cpus2.data       122624                       # Number of bytes read from this memory
system.physmem.bytes_read::switch_cpus3.inst         4608                       # Number of bytes read from this memory
system.physmem.bytes_read::switch_cpus3.data       121088                       # Number of bytes read from this memory
system.physmem.bytes_read::switch_cpus4.inst         4352                       # Number of bytes read from this memory
system.physmem.bytes_read::switch_cpus4.data       183296                       # Number of bytes read from this memory
system.physmem.bytes_read::switch_cpus5.inst         3840                       # Number of bytes read from this memory
system.physmem.bytes_read::switch_cpus5.data       207232                       # Number of bytes read from this memory
system.physmem.bytes_read::switch_cpus6.inst         4608                       # Number of bytes read from this memory
system.physmem.bytes_read::switch_cpus6.data       295680                       # Number of bytes read from this memory
system.physmem.bytes_read::switch_cpus7.inst         4480                       # Number of bytes read from this memory
system.physmem.bytes_read::switch_cpus7.data       100608                       # Number of bytes read from this memory
system.physmem.bytes_read::total              1514112                       # Number of bytes read from this memory
system.physmem.bytes_inst_read::switch_cpus0.inst         4480                       # Number of instructions bytes read from this memory
system.physmem.bytes_inst_read::switch_cpus1.inst         4608                       # Number of instructions bytes read from this memory
system.physmem.bytes_inst_read::switch_cpus2.inst         4608                       # Number of instructions bytes read from this memory
system.physmem.bytes_inst_read::switch_cpus3.inst         4608                       # Number of instructions bytes read from this memory
system.physmem.bytes_inst_read::switch_cpus4.inst         4352                       # Number of instructions bytes read from this memory
system.physmem.bytes_inst_read::switch_cpus5.inst         3840                       # Number of instructions bytes read from this memory
system.physmem.bytes_inst_read::switch_cpus6.inst         4608                       # Number of instructions bytes read from this memory
system.physmem.bytes_inst_read::switch_cpus7.inst         4480                       # Number of instructions bytes read from this memory
system.physmem.bytes_inst_read::total           35584                       # Number of instructions bytes read from this memory
system.physmem.bytes_written::writebacks       578304                       # Number of bytes written to this memory
system.physmem.bytes_written::total            578304                       # Number of bytes written to this memory
system.physmem.num_reads::switch_cpus0.inst           35                       # Number of read requests responded to by this memory
system.physmem.num_reads::switch_cpus0.data         2133                       # Number of read requests responded to by this memory
system.physmem.num_reads::switch_cpus1.inst           36                       # Number of read requests responded to by this memory
system.physmem.num_reads::switch_cpus1.data         1367                       # Number of read requests responded to by this memory
system.physmem.num_reads::switch_cpus2.inst           36                       # Number of read requests responded to by this memory
system.physmem.num_reads::switch_cpus2.data          958                       # Number of read requests responded to by this memory
system.physmem.num_reads::switch_cpus3.inst           36                       # Number of read requests responded to by this memory
system.physmem.num_reads::switch_cpus3.data          946                       # Number of read requests responded to by this memory
system.physmem.num_reads::switch_cpus4.inst           34                       # Number of read requests responded to by this memory
system.physmem.num_reads::switch_cpus4.data         1432                       # Number of read requests responded to by this memory
system.physmem.num_reads::switch_cpus5.inst           30                       # Number of read requests responded to by this memory
system.physmem.num_reads::switch_cpus5.data         1619                       # Number of read requests responded to by this memory
system.physmem.num_reads::switch_cpus6.inst           36                       # Number of read requests responded to by this memory
system.physmem.num_reads::switch_cpus6.data         2310                       # Number of read requests responded to by this memory
system.physmem.num_reads::switch_cpus7.inst           35                       # Number of read requests responded to by this memory
system.physmem.num_reads::switch_cpus7.data          786                       # Number of read requests responded to by this memory
system.physmem.num_reads::total                 11829                       # Number of read requests responded to by this memory
system.physmem.num_writes::writebacks            4518                       # Number of write requests responded to by this memory
system.physmem.num_writes::functional               0                       # Number of write requests responded to by this memory
system.physmem.num_writes::interrupt                0                       # Number of write requests responded to by this memory
system.physmem.num_writes::switch_cpus0.dtb.walker            0                       # Number of write requests responded to by this memory
system.physmem.num_writes::switch_cpus0.itb.walker            0                       # Number of write requests responded to by this memory
system.physmem.num_writes::switch_cpus0.inst            0                       # Number of write requests responded to by this memory
system.physmem.num_writes::switch_cpus0.data            0                       # Number of write requests responded to by this memory
system.physmem.num_writes::switch_cpus1.dtb.walker            0                       # Number of write requests responded to by this memory
system.physmem.num_writes::switch_cpus1.itb.walker            0                       # Number of write requests responded to by this memory
system.physmem.num_writes::switch_cpus1.inst            0                       # Number of write requests responded to by this memory
system.physmem.num_writes::switch_cpus1.data            0                       # Number of write requests responded to by this memory
system.physmem.num_writes::switch_cpus2.dtb.walker            0                       # Number of write requests responded to by this memory
system.physmem.num_writes::switch_cpus2.itb.walker            0                       # Number of write requests responded to by this memory
system.physmem.num_writes::switch_cpus2.inst            0                       # Number of write requests responded to by this memory
system.physmem.num_writes::switch_cpus2.data            0                       # Number of write requests responded to by this memory
system.physmem.num_writes::switch_cpus3.dtb.walker            0                       # Number of write requests responded to by this memory
system.physmem.num_writes::switch_cpus3.itb.walker            0                       # Number of write requests responded to by this memory
system.physmem.num_writes::switch_cpus3.inst            0                       # Number of write requests responded to by this memory
system.physmem.num_writes::switch_cpus3.data            0                       # Number of write requests responded to by this memory
system.physmem.num_writes::switch_cpus4.dtb.walker            0                       # Number of write requests responded to by this memory
system.physmem.num_writes::switch_cpus4.itb.walker            0                       # Number of write requests responded to by this memory
system.physmem.num_writes::switch_cpus4.inst            0                       # Number of write requests responded to by this memory
system.physmem.num_writes::switch_cpus4.data            0                       # Number of write requests responded to by this memory
system.physmem.num_writes::switch_cpus5.dtb.walker            0                       # Number of write requests responded to by this memory
system.physmem.num_writes::switch_cpus5.itb.walker            0                       # Number of write requests responded to by this memory
system.physmem.num_writes::switch_cpus5.inst            0                       # Number of write requests responded to by this memory
system.physmem.num_writes::switch_cpus5.data            0                       # Number of write requests responded to by this memory
system.physmem.num_writes::switch_cpus6.dtb.walker            0                       # Number of write requests responded to by this memory
system.physmem.num_writes::switch_cpus6.itb.walker            0                       # Number of write requests responded to by this memory
system.physmem.num_writes::switch_cpus6.inst            0                       # Number of write requests responded to by this memory
system.physmem.num_writes::switch_cpus6.data            0                       # Number of write requests responded to by this memory
system.physmem.num_writes::switch_cpus7.dtb.walker            0                       # Number of write requests responded to by this memory
system.physmem.num_writes::switch_cpus7.itb.walker            0                       # Number of write requests responded to by this memory
system.physmem.num_writes::switch_cpus7.inst            0                       # Number of write requests responded to by this memory
system.physmem.num_writes::switch_cpus7.data            0                       # Number of write requests responded to by this memory
system.physmem.num_writes::cpu0.dtb.walker            0                       # Number of write requests responded to by this memory
system.physmem.num_writes::cpu0.itb.walker            0                       # Number of write requests responded to by this memory
system.physmem.num_writes::cpu0.inst                0                       # Number of write requests responded to by this memory
system.physmem.num_writes::cpu0.data                0                       # Number of write requests responded to by this memory
system.physmem.num_writes::cpu1.dtb.walker            0                       # Number of write requests responded to by this memory
system.physmem.num_writes::cpu1.itb.walker            0                       # Number of write requests responded to by this memory
system.physmem.num_writes::cpu1.inst                0                       # Number of write requests responded to by this memory
system.physmem.num_writes::cpu1.data                0                       # Number of write requests responded to by this memory
system.physmem.num_writes::cpu2.dtb.walker            0                       # Number of write requests responded to by this memory
system.physmem.num_writes::cpu2.itb.walker            0                       # Number of write requests responded to by this memory
system.physmem.num_writes::cpu2.inst                0                       # Number of write requests responded to by this memory
system.physmem.num_writes::cpu2.data                0                       # Number of write requests responded to by this memory
system.physmem.num_writes::cpu3.dtb.walker            0                       # Number of write requests responded to by this memory
system.physmem.num_writes::cpu3.itb.walker            0                       # Number of write requests responded to by this memory
system.physmem.num_writes::cpu3.inst                0                       # Number of write requests responded to by this memory
system.physmem.num_writes::cpu3.data                0                       # Number of write requests responded to by this memory
system.physmem.num_writes::cpu4.dtb.walker            0                       # Number of write requests responded to by this memory
system.physmem.num_writes::cpu4.itb.walker            0                       # Number of write requests responded to by this memory
system.physmem.num_writes::cpu4.inst                0                       # Number of write requests responded to by this memory
system.physmem.num_writes::cpu4.data                0                       # Number of write requests responded to by this memory
system.physmem.num_writes::cpu5.dtb.walker            0                       # Number of write requests responded to by this memory
system.physmem.num_writes::cpu5.itb.walker            0                       # Number of write requests responded to by this memory
system.physmem.num_writes::cpu5.inst                0                       # Number of write requests responded to by this memory
system.physmem.num_writes::cpu5.data                0                       # Number of write requests responded to by this memory
system.physmem.num_writes::cpu6.dtb.walker            0                       # Number of write requests responded to by this memory
system.physmem.num_writes::cpu6.itb.walker            0                       # Number of write requests responded to by this memory
system.physmem.num_writes::cpu6.inst                0                       # Number of write requests responded to by this memory
system.physmem.num_writes::cpu6.data                0                       # Number of write requests responded to by this memory
system.physmem.num_writes::cpu7.dtb.walker            0                       # Number of write requests responded to by this memory
system.physmem.num_writes::cpu7.itb.walker            0                       # Number of write requests responded to by this memory
system.physmem.num_writes::cpu7.inst                0                       # Number of write requests responded to by this memory
system.physmem.num_writes::cpu7.data                0                       # Number of write requests responded to by this memory
system.physmem.num_writes::total                 4518                       # Number of write requests responded to by this memory
system.physmem.bw_read::switch_cpus0.inst       421722                       # Total read bandwidth from this memory (bytes/s)
system.physmem.bw_read::switch_cpus0.data     25700965                       # Total read bandwidth from this memory (bytes/s)
system.physmem.bw_read::switch_cpus1.inst       433772                       # Total read bandwidth from this memory (bytes/s)
system.physmem.bw_read::switch_cpus1.data     16471270                       # Total read bandwidth from this memory (bytes/s)
system.physmem.bw_read::switch_cpus2.inst       433772                       # Total read bandwidth from this memory (bytes/s)
system.physmem.bw_read::switch_cpus2.data     11543143                       # Total read bandwidth from this memory (bytes/s)
system.physmem.bw_read::switch_cpus3.inst       433772                       # Total read bandwidth from this memory (bytes/s)
system.physmem.bw_read::switch_cpus3.data     11398553                       # Total read bandwidth from this memory (bytes/s)
system.physmem.bw_read::switch_cpus4.inst       409673                       # Total read bandwidth from this memory (bytes/s)
system.physmem.bw_read::switch_cpus4.data     17254469                       # Total read bandwidth from this memory (bytes/s)
system.physmem.bw_read::switch_cpus5.inst       361476                       # Total read bandwidth from this memory (bytes/s)
system.physmem.bw_read::switch_cpus5.data     19507671                       # Total read bandwidth from this memory (bytes/s)
system.physmem.bw_read::switch_cpus6.inst       433772                       # Total read bandwidth from this memory (bytes/s)
system.physmem.bw_read::switch_cpus6.data     27833675                       # Total read bandwidth from this memory (bytes/s)
system.physmem.bw_read::switch_cpus7.inst       421722                       # Total read bandwidth from this memory (bytes/s)
system.physmem.bw_read::switch_cpus7.data      9470679                       # Total read bandwidth from this memory (bytes/s)
system.physmem.bw_read::total               142530107                       # Total read bandwidth from this memory (bytes/s)
system.physmem.bw_inst_read::switch_cpus0.inst       421722                       # Instruction read bandwidth from this memory (bytes/s)
system.physmem.bw_inst_read::switch_cpus1.inst       433772                       # Instruction read bandwidth from this memory (bytes/s)
system.physmem.bw_inst_read::switch_cpus2.inst       433772                       # Instruction read bandwidth from this memory (bytes/s)
system.physmem.bw_inst_read::switch_cpus3.inst       433772                       # Instruction read bandwidth from this memory (bytes/s)
system.physmem.bw_inst_read::switch_cpus4.inst       409673                       # Instruction read bandwidth from this memory (bytes/s)
system.physmem.bw_inst_read::switch_cpus5.inst       361476                       # Instruction read bandwidth from this memory (bytes/s)
system.physmem.bw_inst_read::switch_cpus6.inst       433772                       # Instruction read bandwidth from this memory (bytes/s)
system.physmem.bw_inst_read::switch_cpus7.inst       421722                       # Instruction read bandwidth from this memory (bytes/s)
system.physmem.bw_inst_read::total            3349680                       # Instruction read bandwidth from this memory (bytes/s)
system.physmem.bw_write::writebacks          54438332                       # Write bandwidth from this memory (bytes/s)
system.physmem.bw_write::total               54438332                       # Write bandwidth from this memory (bytes/s)
system.physmem.bw_total::writebacks          54438332                       # Total bandwidth to/from this memory (bytes/s)
system.physmem.bw_total::switch_cpus0.inst       421722                       # Total bandwidth to/from this memory (bytes/s)
system.physmem.bw_total::switch_cpus0.data     25700965                       # Total bandwidth to/from this memory (bytes/s)
system.physmem.bw_total::switch_cpus1.inst       433772                       # Total bandwidth to/from this memory (bytes/s)
system.physmem.bw_total::switch_cpus1.data     16471270                       # Total bandwidth to/from this memory (bytes/s)
system.physmem.bw_total::switch_cpus2.inst       433772                       # Total bandwidth to/from this memory (bytes/s)
system.physmem.bw_total::switch_cpus2.data     11543143                       # Total bandwidth to/from this memory (bytes/s)
system.physmem.bw_total::switch_cpus3.inst       433772                       # Total bandwidth to/from this memory (bytes/s)
system.physmem.bw_total::switch_cpus3.data     11398553                       # Total bandwidth to/from this memory (bytes/s)
system.physmem.bw_total::switch_cpus4.inst       409673                       # Total bandwidth to/from this memory (bytes/s)
system.physmem.bw_total::switch_cpus4.data     17254469                       # Total bandwidth to/from this memory (bytes/s)
system.physmem.bw_total::switch_cpus5.inst       361476                       # Total bandwidth to/from this memory (bytes/s)
system.physmem.bw_total::switch_cpus5.data     19507671                       # Total bandwidth to/from this memory (bytes/s)
system.physmem.bw_total::switch_cpus6.inst       433772                       # Total bandwidth to/from this memory (bytes/s)
system.physmem.bw_total::switch_cpus6.data     27833675                       # Total bandwidth to/from this memory (bytes/s)
system.physmem.bw_total::switch_cpus7.inst       421722                       # Total bandwidth to/from this memory (bytes/s)
system.physmem.bw_total::switch_cpus7.data      9470679                       # Total bandwidth to/from this memory (bytes/s)
system.physmem.bw_total::total              196968439                       # Total bandwidth to/from this memory (bytes/s)
system.switch_cpus0.dtb.inst_hits                   0                       # ITB inst hits
system.switch_cpus0.dtb.inst_misses                 0                       # ITB inst misses
system.switch_cpus0.dtb.read_hits                   0                       # DTB read hits
system.switch_cpus0.dtb.read_misses                 0                       # DTB read misses
system.switch_cpus0.dtb.write_hits                  0                       # DTB write hits
system.switch_cpus0.dtb.write_misses                0                       # DTB write misses
system.switch_cpus0.dtb.flush_tlb                   0                       # Number of times complete TLB was flushed
system.switch_cpus0.dtb.flush_tlb_mva               0                       # Number of times TLB was flushed by MVA
system.switch_cpus0.dtb.flush_tlb_mva_asid            0                       # Number of times TLB was flushed by MVA & ASID
system.switch_cpus0.dtb.flush_tlb_asid              0                       # Number of times TLB was flushed by ASID
system.switch_cpus0.dtb.flush_entries               0                       # Number of entries that have been flushed from TLB
system.switch_cpus0.dtb.align_faults                0                       # Number of TLB faults due to alignment restrictions
system.switch_cpus0.dtb.prefetch_faults             0                       # Number of TLB faults due to prefetch
system.switch_cpus0.dtb.domain_faults               0                       # Number of TLB faults due to domain restrictions
system.switch_cpus0.dtb.perms_faults                0                       # Number of TLB faults due to permissions restrictions
system.switch_cpus0.dtb.read_accesses               0                       # DTB read accesses
system.switch_cpus0.dtb.write_accesses              0                       # DTB write accesses
system.switch_cpus0.dtb.inst_accesses               0                       # ITB inst accesses
system.switch_cpus0.dtb.hits                        0                       # DTB hits
system.switch_cpus0.dtb.misses                      0                       # DTB misses
system.switch_cpus0.dtb.accesses                    0                       # DTB accesses
system.switch_cpus0.itb.inst_hits                   0                       # ITB inst hits
system.switch_cpus0.itb.inst_misses                 0                       # ITB inst misses
system.switch_cpus0.itb.read_hits                   0                       # DTB read hits
system.switch_cpus0.itb.read_misses                 0                       # DTB read misses
system.switch_cpus0.itb.write_hits                  0                       # DTB write hits
system.switch_cpus0.itb.write_misses                0                       # DTB write misses
system.switch_cpus0.itb.flush_tlb                   0                       # Number of times complete TLB was flushed
system.switch_cpus0.itb.flush_tlb_mva               0                       # Number of times TLB was flushed by MVA
system.switch_cpus0.itb.flush_tlb_mva_asid            0                       # Number of times TLB was flushed by MVA & ASID
system.switch_cpus0.itb.flush_tlb_asid              0                       # Number of times TLB was flushed by ASID
system.switch_cpus0.itb.flush_entries               0                       # Number of entries that have been flushed from TLB
system.switch_cpus0.itb.align_faults                0                       # Number of TLB faults due to alignment restrictions
system.switch_cpus0.itb.prefetch_faults             0                       # Number of TLB faults due to prefetch
system.switch_cpus0.itb.domain_faults               0                       # Number of TLB faults due to domain restrictions
system.switch_cpus0.itb.perms_faults                0                       # Number of TLB faults due to permissions restrictions
system.switch_cpus0.itb.read_accesses               0                       # DTB read accesses
system.switch_cpus0.itb.write_accesses              0                       # DTB write accesses
system.switch_cpus0.itb.inst_accesses               0                       # ITB inst accesses
system.switch_cpus0.itb.hits                        0                       # DTB hits
system.switch_cpus0.itb.misses                      0                       # DTB misses
system.switch_cpus0.itb.accesses                    0                       # DTB accesses
system.cpu0.workload.num_syscalls                   5                       # Number of system calls
system.switch_cpus0.numCycles                25475068                       # number of cpu cycles simulated
system.switch_cpus0.numWorkItemsStarted             0                       # number of work items this cpu started
system.switch_cpus0.numWorkItemsCompleted            0                       # number of work items this cpu completed
system.switch_cpus0.BPredUnit.lookups         2079051                       # Number of BP lookups
system.switch_cpus0.BPredUnit.condPredicted      1700043                       # Number of conditional branches predicted
system.switch_cpus0.BPredUnit.condIncorrect       204744                       # Number of conditional branches incorrect
system.switch_cpus0.BPredUnit.BTBLookups       850591                       # Number of BTB lookups
system.switch_cpus0.BPredUnit.BTBHits          816666                       # Number of BTB hits
system.switch_cpus0.BPredUnit.BTBCorrect            0                       # Number of correct BTB predictions (this stat may not work properly.
system.switch_cpus0.BPredUnit.usedRAS          213481                       # Number of times the RAS was used to get a target.
system.switch_cpus0.BPredUnit.RASInCorrect         9195                       # Number of incorrect RAS predictions.
system.switch_cpus0.fetch.icacheStallCycles     20169401                       # Number of cycles fetch is stalled on an Icache miss
system.switch_cpus0.fetch.Insts              11802825                       # Number of instructions fetch has processed
system.switch_cpus0.fetch.Branches            2079051                       # Number of branches that fetch encountered
system.switch_cpus0.fetch.predictedBranches      1030147                       # Number of branches that fetch has predicted taken
system.switch_cpus0.fetch.Cycles              2470461                       # Number of cycles fetch has run and was not squashing or blocked
system.switch_cpus0.fetch.SquashCycles         597025                       # Number of cycles fetch has spent squashing
system.switch_cpus0.fetch.BlockedCycles        341147                       # Number of cycles fetch has spent blocked
system.switch_cpus0.fetch.CacheLines          1241934                       # Number of cache lines fetched
system.switch_cpus0.fetch.IcacheSquashes       206232                       # Number of outstanding Icache misses that were squashed
system.switch_cpus0.fetch.rateDist::samples     23368795                       # Number of instructions fetched each cycle (Total)
system.switch_cpus0.fetch.rateDist::mean     0.617083                       # Number of instructions fetched each cycle (Total)
system.switch_cpus0.fetch.rateDist::stdev     1.969452                       # Number of instructions fetched each cycle (Total)
system.switch_cpus0.fetch.rateDist::underflows            0      0.00%      0.00% # Number of instructions fetched each cycle (Total)
system.switch_cpus0.fetch.rateDist::0        20898334     89.43%     89.43% # Number of instructions fetched each cycle (Total)
system.switch_cpus0.fetch.rateDist::1          133434      0.57%     90.00% # Number of instructions fetched each cycle (Total)
system.switch_cpus0.fetch.rateDist::2          210270      0.90%     90.90% # Number of instructions fetched each cycle (Total)
system.switch_cpus0.fetch.rateDist::3          336450      1.44%     92.34% # Number of instructions fetched each cycle (Total)
system.switch_cpus0.fetch.rateDist::4          139337      0.60%     92.94% # Number of instructions fetched each cycle (Total)
system.switch_cpus0.fetch.rateDist::5          155462      0.67%     93.60% # Number of instructions fetched each cycle (Total)
system.switch_cpus0.fetch.rateDist::6          166271      0.71%     94.31% # Number of instructions fetched each cycle (Total)
system.switch_cpus0.fetch.rateDist::7          109018      0.47%     94.78% # Number of instructions fetched each cycle (Total)
system.switch_cpus0.fetch.rateDist::8         1220219      5.22%    100.00% # Number of instructions fetched each cycle (Total)
system.switch_cpus0.fetch.rateDist::overflows            0      0.00%    100.00% # Number of instructions fetched each cycle (Total)
system.switch_cpus0.fetch.rateDist::min_value            0                       # Number of instructions fetched each cycle (Total)
system.switch_cpus0.fetch.rateDist::max_value            8                       # Number of instructions fetched each cycle (Total)
system.switch_cpus0.fetch.rateDist::total     23368795                       # Number of instructions fetched each cycle (Total)
system.switch_cpus0.fetch.branchRate         0.081611                       # Number of branch fetches per cycle
system.switch_cpus0.fetch.rate               0.463309                       # Number of inst fetches per cycle
system.switch_cpus0.decode.IdleCycles        19985936                       # Number of cycles decode is idle
system.switch_cpus0.decode.BlockedCycles       526477                       # Number of cycles decode is blocked
system.switch_cpus0.decode.RunCycles          2462532                       # Number of cycles decode is running
system.switch_cpus0.decode.UnblockCycles         6338                       # Number of cycles decode is unblocking
system.switch_cpus0.decode.SquashCycles        387509                       # Number of cycles decode is squashing
system.switch_cpus0.decode.BranchResolved       340931                       # Number of times decode resolved a branch
system.switch_cpus0.decode.BranchMispred          278                       # Number of times decode detected a branch misprediction
system.switch_cpus0.decode.DecodedInsts      14408811                       # Number of instructions handled by decode
system.switch_cpus0.decode.SquashedInsts         1635                       # Number of squashed instructions handled by decode
system.switch_cpus0.rename.SquashCycles        387509                       # Number of cycles rename is squashing
system.switch_cpus0.rename.IdleCycles        20017143                       # Number of cycles rename is idle
system.switch_cpus0.rename.BlockCycles         169194                       # Number of cycles rename is blocking
system.switch_cpus0.rename.serializeStallCycles       269159                       # count of cycles rename stalled for serializing inst
system.switch_cpus0.rename.RunCycles          2438089                       # Number of cycles rename is running
system.switch_cpus0.rename.UnblockCycles        87696                       # Number of cycles rename is unblocking
system.switch_cpus0.rename.RenamedInsts      14399795                       # Number of instructions processed by rename
system.switch_cpus0.rename.ROBFullEvents         1690                       # Number of times rename has blocked due to ROB full
system.switch_cpus0.rename.IQFullEvents         24864                       # Number of times rename has blocked due to IQ full
system.switch_cpus0.rename.LSQFullEvents        33599                       # Number of times rename has blocked due to LSQ full
system.switch_cpus0.rename.FullRegisterEvents         2685                       # Number of times there has been no free registers
system.switch_cpus0.rename.RenamedOperands     19989920                       # Number of destination operands rename has renamed
system.switch_cpus0.rename.RenameLookups     66981622                       # Number of register rename lookups that rename has made
system.switch_cpus0.rename.int_rename_lookups     66981622                       # Number of integer rename lookups
system.switch_cpus0.rename.CommittedMaps     17023993                       # Number of HB maps that are committed
system.switch_cpus0.rename.UndoneMaps         2965905                       # Number of HB maps that are undone due to squashing
system.switch_cpus0.rename.serializingInsts         3685                       # count of serializing insts renamed
system.switch_cpus0.rename.tempSerializingInsts         2036                       # count of temporary serializing insts renamed
system.switch_cpus0.rename.skidInsts           270177                       # count of insts added to the skid buffer
system.switch_cpus0.memDep0.insertedLoads      1372409                       # Number of loads inserted to the mem dependence unit.
system.switch_cpus0.memDep0.insertedStores       737680                       # Number of stores inserted to the mem dependence unit.
system.switch_cpus0.memDep0.conflictingLoads        22243                       # Number of conflicting loads.
system.switch_cpus0.memDep0.conflictingStores       169029                       # Number of conflicting stores.
system.switch_cpus0.iq.iqInstsAdded          14380332                       # Number of instructions added to the IQ (excludes non-spec)
system.switch_cpus0.iq.iqNonSpecInstsAdded         3694                       # Number of non-speculative instructions added to the IQ
system.switch_cpus0.iq.iqInstsIssued         13593535                       # Number of instructions issued
system.switch_cpus0.iq.iqSquashedInstsIssued        17176                       # Number of squashed instructions issued
system.switch_cpus0.iq.iqSquashedInstsExamined      1853442                       # Number of squashed instructions iterated over during squash; mainly for profiling
system.switch_cpus0.iq.iqSquashedOperandsExamined      4147600                       # Number of squashed operands that are examined and possibly removed from graph
system.switch_cpus0.iq.iqSquashedNonSpecRemoved          375                       # Number of squashed non-spec instructions that were removed
system.switch_cpus0.iq.issued_per_cycle::samples     23368795                       # Number of insts issued each cycle
system.switch_cpus0.iq.issued_per_cycle::mean     0.581696                       # Number of insts issued each cycle
system.switch_cpus0.iq.issued_per_cycle::stdev     1.273919                       # Number of insts issued each cycle
system.switch_cpus0.iq.issued_per_cycle::underflows            0      0.00%      0.00% # Number of insts issued each cycle
system.switch_cpus0.iq.issued_per_cycle::0     17640515     75.49%     75.49% # Number of insts issued each cycle
system.switch_cpus0.iq.issued_per_cycle::1      2297466      9.83%     85.32% # Number of insts issued each cycle
system.switch_cpus0.iq.issued_per_cycle::2      1255870      5.37%     90.69% # Number of insts issued each cycle
system.switch_cpus0.iq.issued_per_cycle::3       857933      3.67%     94.36% # Number of insts issued each cycle
system.switch_cpus0.iq.issued_per_cycle::4       804010      3.44%     97.80% # Number of insts issued each cycle
system.switch_cpus0.iq.issued_per_cycle::5       229150      0.98%     98.79% # Number of insts issued each cycle
system.switch_cpus0.iq.issued_per_cycle::6       180556      0.77%     99.56% # Number of insts issued each cycle
system.switch_cpus0.iq.issued_per_cycle::7        60956      0.26%     99.82% # Number of insts issued each cycle
system.switch_cpus0.iq.issued_per_cycle::8        42339      0.18%    100.00% # Number of insts issued each cycle
system.switch_cpus0.iq.issued_per_cycle::overflows            0      0.00%    100.00% # Number of insts issued each cycle
system.switch_cpus0.iq.issued_per_cycle::min_value            0                       # Number of insts issued each cycle
system.switch_cpus0.iq.issued_per_cycle::max_value            8                       # Number of insts issued each cycle
system.switch_cpus0.iq.issued_per_cycle::total     23368795                       # Number of insts issued each cycle
system.switch_cpus0.iq.fu_full::No_OpClass            0      0.00%      0.00% # attempts to use FU when none available
system.switch_cpus0.iq.fu_full::IntAlu           3211     12.55%     12.55% # attempts to use FU when none available
system.switch_cpus0.iq.fu_full::IntMult             0      0.00%     12.55% # attempts to use FU when none available
system.switch_cpus0.iq.fu_full::IntDiv              0      0.00%     12.55% # attempts to use FU when none available
system.switch_cpus0.iq.fu_full::FloatAdd            0      0.00%     12.55% # attempts to use FU when none available
system.switch_cpus0.iq.fu_full::FloatCmp            0      0.00%     12.55% # attempts to use FU when none available
system.switch_cpus0.iq.fu_full::FloatCvt            0      0.00%     12.55% # attempts to use FU when none available
system.switch_cpus0.iq.fu_full::FloatMult            0      0.00%     12.55% # attempts to use FU when none available
system.switch_cpus0.iq.fu_full::FloatDiv            0      0.00%     12.55% # attempts to use FU when none available
system.switch_cpus0.iq.fu_full::FloatSqrt            0      0.00%     12.55% # attempts to use FU when none available
system.switch_cpus0.iq.fu_full::SimdAdd             0      0.00%     12.55% # attempts to use FU when none available
system.switch_cpus0.iq.fu_full::SimdAddAcc            0      0.00%     12.55% # attempts to use FU when none available
system.switch_cpus0.iq.fu_full::SimdAlu             0      0.00%     12.55% # attempts to use FU when none available
system.switch_cpus0.iq.fu_full::SimdCmp             0      0.00%     12.55% # attempts to use FU when none available
system.switch_cpus0.iq.fu_full::SimdCvt             0      0.00%     12.55% # attempts to use FU when none available
system.switch_cpus0.iq.fu_full::SimdMisc            0      0.00%     12.55% # attempts to use FU when none available
system.switch_cpus0.iq.fu_full::SimdMult            0      0.00%     12.55% # attempts to use FU when none available
system.switch_cpus0.iq.fu_full::SimdMultAcc            0      0.00%     12.55% # attempts to use FU when none available
system.switch_cpus0.iq.fu_full::SimdShift            0      0.00%     12.55% # attempts to use FU when none available
system.switch_cpus0.iq.fu_full::SimdShiftAcc            0      0.00%     12.55% # attempts to use FU when none available
system.switch_cpus0.iq.fu_full::SimdSqrt            0      0.00%     12.55% # attempts to use FU when none available
system.switch_cpus0.iq.fu_full::SimdFloatAdd            0      0.00%     12.55% # attempts to use FU when none available
system.switch_cpus0.iq.fu_full::SimdFloatAlu            0      0.00%     12.55% # attempts to use FU when none available
system.switch_cpus0.iq.fu_full::SimdFloatCmp            0      0.00%     12.55% # attempts to use FU when none available
system.switch_cpus0.iq.fu_full::SimdFloatCvt            0      0.00%     12.55% # attempts to use FU when none available
system.switch_cpus0.iq.fu_full::SimdFloatDiv            0      0.00%     12.55% # attempts to use FU when none available
system.switch_cpus0.iq.fu_full::SimdFloatMisc            0      0.00%     12.55% # attempts to use FU when none available
system.switch_cpus0.iq.fu_full::SimdFloatMult            0      0.00%     12.55% # attempts to use FU when none available
system.switch_cpus0.iq.fu_full::SimdFloatMultAcc            0      0.00%     12.55% # attempts to use FU when none available
system.switch_cpus0.iq.fu_full::SimdFloatSqrt            0      0.00%     12.55% # attempts to use FU when none available
system.switch_cpus0.iq.fu_full::MemRead          9900     38.69%     51.24% # attempts to use FU when none available
system.switch_cpus0.iq.fu_full::MemWrite        12475     48.76%    100.00% # attempts to use FU when none available
system.switch_cpus0.iq.fu_full::IprAccess            0      0.00%    100.00% # attempts to use FU when none available
system.switch_cpus0.iq.fu_full::InstPrefetch            0      0.00%    100.00% # attempts to use FU when none available
system.switch_cpus0.iq.FU_type_0::No_OpClass            0      0.00%      0.00% # Type of FU issued
system.switch_cpus0.iq.FU_type_0::IntAlu     11386810     83.77%     83.77% # Type of FU issued
system.switch_cpus0.iq.FU_type_0::IntMult       215123      1.58%     85.35% # Type of FU issued
system.switch_cpus0.iq.FU_type_0::IntDiv            0      0.00%     85.35% # Type of FU issued
system.switch_cpus0.iq.FU_type_0::FloatAdd            0      0.00%     85.35% # Type of FU issued
system.switch_cpus0.iq.FU_type_0::FloatCmp            0      0.00%     85.35% # Type of FU issued
system.switch_cpus0.iq.FU_type_0::FloatCvt            0      0.00%     85.35% # Type of FU issued
system.switch_cpus0.iq.FU_type_0::FloatMult            0      0.00%     85.35% # Type of FU issued
system.switch_cpus0.iq.FU_type_0::FloatDiv            0      0.00%     85.35% # Type of FU issued
system.switch_cpus0.iq.FU_type_0::FloatSqrt            0      0.00%     85.35% # Type of FU issued
system.switch_cpus0.iq.FU_type_0::SimdAdd            0      0.00%     85.35% # Type of FU issued
system.switch_cpus0.iq.FU_type_0::SimdAddAcc            0      0.00%     85.35% # Type of FU issued
system.switch_cpus0.iq.FU_type_0::SimdAlu            0      0.00%     85.35% # Type of FU issued
system.switch_cpus0.iq.FU_type_0::SimdCmp            0      0.00%     85.35% # Type of FU issued
system.switch_cpus0.iq.FU_type_0::SimdCvt            0      0.00%     85.35% # Type of FU issued
system.switch_cpus0.iq.FU_type_0::SimdMisc            0      0.00%     85.35% # Type of FU issued
system.switch_cpus0.iq.FU_type_0::SimdMult            0      0.00%     85.35% # Type of FU issued
system.switch_cpus0.iq.FU_type_0::SimdMultAcc            0      0.00%     85.35% # Type of FU issued
system.switch_cpus0.iq.FU_type_0::SimdShift            0      0.00%     85.35% # Type of FU issued
system.switch_cpus0.iq.FU_type_0::SimdShiftAcc            0      0.00%     85.35% # Type of FU issued
system.switch_cpus0.iq.FU_type_0::SimdSqrt            0      0.00%     85.35% # Type of FU issued
system.switch_cpus0.iq.FU_type_0::SimdFloatAdd            0      0.00%     85.35% # Type of FU issued
system.switch_cpus0.iq.FU_type_0::SimdFloatAlu            0      0.00%     85.35% # Type of FU issued
system.switch_cpus0.iq.FU_type_0::SimdFloatCmp            0      0.00%     85.35% # Type of FU issued
system.switch_cpus0.iq.FU_type_0::SimdFloatCvt            0      0.00%     85.35% # Type of FU issued
system.switch_cpus0.iq.FU_type_0::SimdFloatDiv            0      0.00%     85.35% # Type of FU issued
system.switch_cpus0.iq.FU_type_0::SimdFloatMisc         1646      0.01%     85.36% # Type of FU issued
system.switch_cpus0.iq.FU_type_0::SimdFloatMult            0      0.00%     85.36% # Type of FU issued
system.switch_cpus0.iq.FU_type_0::SimdFloatMultAcc            0      0.00%     85.36% # Type of FU issued
system.switch_cpus0.iq.FU_type_0::SimdFloatSqrt            0      0.00%     85.36% # Type of FU issued
system.switch_cpus0.iq.FU_type_0::MemRead      1256649      9.24%     94.61% # Type of FU issued
system.switch_cpus0.iq.FU_type_0::MemWrite       733307      5.39%    100.00% # Type of FU issued
system.switch_cpus0.iq.FU_type_0::IprAccess            0      0.00%    100.00% # Type of FU issued
system.switch_cpus0.iq.FU_type_0::InstPrefetch            0      0.00%    100.00% # Type of FU issued
system.switch_cpus0.iq.FU_type_0::total      13593535                       # Type of FU issued
system.switch_cpus0.iq.rate                  0.533602                       # Inst issue rate
system.switch_cpus0.iq.fu_busy_cnt              25586                       # FU busy when requested
system.switch_cpus0.iq.fu_busy_rate          0.001882                       # FU busy rate (busy events/executed inst)
system.switch_cpus0.iq.int_inst_queue_reads     50598626                       # Number of integer instruction queue reads
system.switch_cpus0.iq.int_inst_queue_writes     16237626                       # Number of integer instruction queue writes
system.switch_cpus0.iq.int_inst_queue_wakeup_accesses     13371399                       # Number of integer instruction queue wakeup accesses
system.switch_cpus0.iq.fp_inst_queue_reads            0                       # Number of floating instruction queue reads
system.switch_cpus0.iq.fp_inst_queue_writes            0                       # Number of floating instruction queue writes
system.switch_cpus0.iq.fp_inst_queue_wakeup_accesses            0                       # Number of floating instruction queue wakeup accesses
system.switch_cpus0.iq.int_alu_accesses      13619121                       # Number of integer alu accesses
system.switch_cpus0.iq.fp_alu_accesses              0                       # Number of floating point alu accesses
system.switch_cpus0.iew.lsq.thread0.forwLoads        41098                       # Number of loads that had data forwarded from stores
system.switch_cpus0.iew.lsq.thread0.invAddrLoads            0                       # Number of loads ignored due to an invalid address
system.switch_cpus0.iew.lsq.thread0.squashedLoads       248850                       # Number of loads squashed
system.switch_cpus0.iew.lsq.thread0.ignoredResponses           37                       # Number of memory responses ignored because the instruction is squashed
system.switch_cpus0.iew.lsq.thread0.memOrderViolation          162                       # Number of memory ordering violations
system.switch_cpus0.iew.lsq.thread0.squashedStores        23463                       # Number of stores squashed
system.switch_cpus0.iew.lsq.thread0.invAddrSwpfs            0                       # Number of software prefetches ignored due to an invalid address
system.switch_cpus0.iew.lsq.thread0.blockedLoads            0                       # Number of blocked loads due to partial load-store forwarding
system.switch_cpus0.iew.lsq.thread0.rescheduledLoads          871                       # Number of loads that were rescheduled
system.switch_cpus0.iew.lsq.thread0.cacheBlocked            0                       # Number of times an access to memory failed due to the cache being blocked
system.switch_cpus0.iew.iewIdleCycles               0                       # Number of cycles IEW is idle
system.switch_cpus0.iew.iewSquashCycles        387509                       # Number of cycles IEW is squashing
system.switch_cpus0.iew.iewBlockCycles         118788                       # Number of cycles IEW is blocking
system.switch_cpus0.iew.iewUnblockCycles        12413                       # Number of cycles IEW is unblocking
system.switch_cpus0.iew.iewDispatchedInsts     14384046                       # Number of instructions dispatched to IQ
system.switch_cpus0.iew.iewDispSquashedInsts          719                       # Number of squashed instructions skipped by dispatch
system.switch_cpus0.iew.iewDispLoadInsts      1372409                       # Number of dispatched load instructions
system.switch_cpus0.iew.iewDispStoreInsts       737680                       # Number of dispatched store instructions
system.switch_cpus0.iew.iewDispNonSpecInsts         2036                       # Number of dispatched non-speculative instructions
system.switch_cpus0.iew.iewIQFullEvents          9240                       # Number of times the IQ has become full, causing a stall
system.switch_cpus0.iew.iewLSQFullEvents            0                       # Number of times the LSQ has become full, causing a stall
system.switch_cpus0.iew.memOrderViolationEvents          162                       # Number of memory order violations
system.switch_cpus0.iew.predictedTakenIncorrect       118764                       # Number of branches that were predicted taken incorrectly
system.switch_cpus0.iew.predictedNotTakenIncorrect       117688                       # Number of branches that were predicted not taken incorrectly
system.switch_cpus0.iew.branchMispredicts       236452                       # Number of branch mispredicts detected at execute
system.switch_cpus0.iew.iewExecutedInsts     13397346                       # Number of executed instructions
system.switch_cpus0.iew.iewExecLoadInsts      1181176                       # Number of load instructions executed
system.switch_cpus0.iew.iewExecSquashedInsts       196188                       # Number of squashed instructions skipped in execute
system.switch_cpus0.iew.exec_swp                    0                       # number of swp insts executed
system.switch_cpus0.iew.exec_nop                   20                       # number of nop insts executed
system.switch_cpus0.iew.exec_refs             1914148                       # number of memory reference insts executed
system.switch_cpus0.iew.exec_branches         1884306                       # Number of branches executed
system.switch_cpus0.iew.exec_stores            732972                       # Number of stores executed
system.switch_cpus0.iew.exec_rate            0.525900                       # Inst execution rate
system.switch_cpus0.iew.wb_sent              13371605                       # cumulative count of insts sent to commit
system.switch_cpus0.iew.wb_count             13371399                       # cumulative count of insts written-back
system.switch_cpus0.iew.wb_producers          7816999                       # num instructions producing a value
system.switch_cpus0.iew.wb_consumers         20425643                       # num instructions consuming a value
system.switch_cpus0.iew.wb_penalized                0                       # number of instrctions required to write to 'other' IQ
system.switch_cpus0.iew.wb_rate              0.524882                       # insts written-back per cycle
system.switch_cpus0.iew.wb_fanout            0.382705                       # average fanout of values written-back
system.switch_cpus0.iew.wb_penalized_rate            0                       # fraction of instructions written-back that wrote to 'other' IQ
system.switch_cpus0.commit.commitCommittedInsts     10000000                       # The number of committed instructions
system.switch_cpus0.commit.commitCommittedOps     12257191                       # The number of committed instructions
system.switch_cpus0.commit.commitSquashedInsts      2126876                       # The number of squashed insts skipped by commit
system.switch_cpus0.commit.commitNonSpecStalls         3319                       # The number of times commit has been forced to stall to communicate backwards
system.switch_cpus0.commit.branchMispredicts       208851                       # The number of times a branch was mispredicted
system.switch_cpus0.commit.committed_per_cycle::samples     22981286                       # Number of insts commited each cycle
system.switch_cpus0.commit.committed_per_cycle::mean     0.533355                       # Number of insts commited each cycle
system.switch_cpus0.commit.committed_per_cycle::stdev     1.386609                       # Number of insts commited each cycle
system.switch_cpus0.commit.committed_per_cycle::underflows            0      0.00%      0.00% # Number of insts commited each cycle
system.switch_cpus0.commit.committed_per_cycle::0     18003073     78.34%     78.34% # Number of insts commited each cycle
system.switch_cpus0.commit.committed_per_cycle::1      2411505     10.49%     88.83% # Number of insts commited each cycle
system.switch_cpus0.commit.committed_per_cycle::2       939772      4.09%     92.92% # Number of insts commited each cycle
system.switch_cpus0.commit.committed_per_cycle::3       505277      2.20%     95.12% # Number of insts commited each cycle
system.switch_cpus0.commit.committed_per_cycle::4       377883      1.64%     96.76% # Number of insts commited each cycle
system.switch_cpus0.commit.committed_per_cycle::5       211149      0.92%     97.68% # Number of insts commited each cycle
system.switch_cpus0.commit.committed_per_cycle::6       130944      0.57%     98.25% # Number of insts commited each cycle
system.switch_cpus0.commit.committed_per_cycle::7       116094      0.51%     98.76% # Number of insts commited each cycle
system.switch_cpus0.commit.committed_per_cycle::8       285589      1.24%    100.00% # Number of insts commited each cycle
system.switch_cpus0.commit.committed_per_cycle::overflows            0      0.00%    100.00% # Number of insts commited each cycle
system.switch_cpus0.commit.committed_per_cycle::min_value            0                       # Number of insts commited each cycle
system.switch_cpus0.commit.committed_per_cycle::max_value            8                       # Number of insts commited each cycle
system.switch_cpus0.commit.committed_per_cycle::total     22981286                       # Number of insts commited each cycle
system.switch_cpus0.commit.committedInsts     10000000                       # Number of instructions committed
system.switch_cpus0.commit.committedOps      12257191                       # Number of ops (including micro ops) committed
system.switch_cpus0.commit.swp_count                0                       # Number of s/w prefetches committed
system.switch_cpus0.commit.refs               1837776                       # Number of memory references committed
system.switch_cpus0.commit.loads              1123559                       # Number of loads committed
system.switch_cpus0.commit.membars               1656                       # Number of memory barriers committed
system.switch_cpus0.commit.branches           1759628                       # Number of branches committed
system.switch_cpus0.commit.fp_insts                 0                       # Number of committed floating point instructions.
system.switch_cpus0.commit.int_insts         11044453                       # Number of committed integer instructions.
system.switch_cpus0.commit.function_calls       248995                       # Number of function calls committed.
system.switch_cpus0.commit.bw_lim_events       285589                       # number cycles where commit BW limit reached
system.switch_cpus0.commit.bw_limited               0                       # number of insts not committed due to BW limits
system.switch_cpus0.rob.rob_reads            37079699                       # The number of ROB reads
system.switch_cpus0.rob.rob_writes           29155687                       # The number of ROB writes
system.switch_cpus0.timesIdled                 326974                       # Number of times that the entire CPU went into an idle state and unscheduled itself
system.switch_cpus0.idleCycles                2106273                       # Total number of cycles that the CPU has spent unscheduled due to idling
system.switch_cpus0.committedInsts           10000000                       # Number of Instructions Simulated
system.switch_cpus0.committedOps             12257191                       # Number of Ops (including micro ops) Simulated
system.switch_cpus0.committedInsts_total     10000000                       # Number of Instructions Simulated
system.switch_cpus0.cpi                      2.547507                       # CPI: Cycles Per Instruction
system.switch_cpus0.cpi_total                2.547507                       # CPI: Total CPI of All Threads
system.switch_cpus0.ipc                      0.392541                       # IPC: Instructions Per Cycle
system.switch_cpus0.ipc_total                0.392541                       # IPC: Total IPC of All Threads
system.switch_cpus0.int_regfile_reads        60411425                       # number of integer regfile reads
system.switch_cpus0.int_regfile_writes       18535217                       # number of integer regfile writes
system.switch_cpus0.misc_regfile_reads       13439821                       # number of misc regfile reads
system.switch_cpus0.misc_regfile_writes          3316                       # number of misc regfile writes
system.switch_cpus1.dtb.inst_hits                   0                       # ITB inst hits
system.switch_cpus1.dtb.inst_misses                 0                       # ITB inst misses
system.switch_cpus1.dtb.read_hits                   0                       # DTB read hits
system.switch_cpus1.dtb.read_misses                 0                       # DTB read misses
system.switch_cpus1.dtb.write_hits                  0                       # DTB write hits
system.switch_cpus1.dtb.write_misses                0                       # DTB write misses
system.switch_cpus1.dtb.flush_tlb                   0                       # Number of times complete TLB was flushed
system.switch_cpus1.dtb.flush_tlb_mva               0                       # Number of times TLB was flushed by MVA
system.switch_cpus1.dtb.flush_tlb_mva_asid            0                       # Number of times TLB was flushed by MVA & ASID
system.switch_cpus1.dtb.flush_tlb_asid              0                       # Number of times TLB was flushed by ASID
system.switch_cpus1.dtb.flush_entries               0                       # Number of entries that have been flushed from TLB
system.switch_cpus1.dtb.align_faults                0                       # Number of TLB faults due to alignment restrictions
system.switch_cpus1.dtb.prefetch_faults             0                       # Number of TLB faults due to prefetch
system.switch_cpus1.dtb.domain_faults               0                       # Number of TLB faults due to domain restrictions
system.switch_cpus1.dtb.perms_faults                0                       # Number of TLB faults due to permissions restrictions
system.switch_cpus1.dtb.read_accesses               0                       # DTB read accesses
system.switch_cpus1.dtb.write_accesses              0                       # DTB write accesses
system.switch_cpus1.dtb.inst_accesses               0                       # ITB inst accesses
system.switch_cpus1.dtb.hits                        0                       # DTB hits
system.switch_cpus1.dtb.misses                      0                       # DTB misses
system.switch_cpus1.dtb.accesses                    0                       # DTB accesses
system.switch_cpus1.itb.inst_hits                   0                       # ITB inst hits
system.switch_cpus1.itb.inst_misses                 0                       # ITB inst misses
system.switch_cpus1.itb.read_hits                   0                       # DTB read hits
system.switch_cpus1.itb.read_misses                 0                       # DTB read misses
system.switch_cpus1.itb.write_hits                  0                       # DTB write hits
system.switch_cpus1.itb.write_misses                0                       # DTB write misses
system.switch_cpus1.itb.flush_tlb                   0                       # Number of times complete TLB was flushed
system.switch_cpus1.itb.flush_tlb_mva               0                       # Number of times TLB was flushed by MVA
system.switch_cpus1.itb.flush_tlb_mva_asid            0                       # Number of times TLB was flushed by MVA & ASID
system.switch_cpus1.itb.flush_tlb_asid              0                       # Number of times TLB was flushed by ASID
system.switch_cpus1.itb.flush_entries               0                       # Number of entries that have been flushed from TLB
system.switch_cpus1.itb.align_faults                0                       # Number of TLB faults due to alignment restrictions
system.switch_cpus1.itb.prefetch_faults             0                       # Number of TLB faults due to prefetch
system.switch_cpus1.itb.domain_faults               0                       # Number of TLB faults due to domain restrictions
system.switch_cpus1.itb.perms_faults                0                       # Number of TLB faults due to permissions restrictions
system.switch_cpus1.itb.read_accesses               0                       # DTB read accesses
system.switch_cpus1.itb.write_accesses              0                       # DTB write accesses
system.switch_cpus1.itb.inst_accesses               0                       # ITB inst accesses
system.switch_cpus1.itb.hits                        0                       # DTB hits
system.switch_cpus1.itb.misses                      0                       # DTB misses
system.switch_cpus1.itb.accesses                    0                       # DTB accesses
system.cpu1.workload.num_syscalls                   5                       # Number of system calls
system.switch_cpus1.numCycles                25475068                       # number of cpu cycles simulated
system.switch_cpus1.numWorkItemsStarted             0                       # number of work items this cpu started
system.switch_cpus1.numWorkItemsCompleted            0                       # number of work items this cpu completed
system.switch_cpus1.BPredUnit.lookups         2086383                       # Number of BP lookups
system.switch_cpus1.BPredUnit.condPredicted      1712497                       # Number of conditional branches predicted
system.switch_cpus1.BPredUnit.condIncorrect       206854                       # Number of conditional branches incorrect
system.switch_cpus1.BPredUnit.BTBLookups       863496                       # Number of BTB lookups
system.switch_cpus1.BPredUnit.BTBHits          814698                       # Number of BTB hits
system.switch_cpus1.BPredUnit.BTBCorrect            0                       # Number of correct BTB predictions (this stat may not work properly.
system.switch_cpus1.BPredUnit.usedRAS          213002                       # Number of times the RAS was used to get a target.
system.switch_cpus1.BPredUnit.RASInCorrect         9168                       # Number of incorrect RAS predictions.
system.switch_cpus1.fetch.icacheStallCycles     19918826                       # Number of cycles fetch is stalled on an Icache miss
system.switch_cpus1.fetch.Insts              11842867                       # Number of instructions fetch has processed
system.switch_cpus1.fetch.Branches            2086383                       # Number of branches that fetch encountered
system.switch_cpus1.fetch.predictedBranches      1027700                       # Number of branches that fetch has predicted taken
system.switch_cpus1.fetch.Cycles              2603508                       # Number of cycles fetch has run and was not squashing or blocked
system.switch_cpus1.fetch.SquashCycles         584605                       # Number of cycles fetch has spent squashing
system.switch_cpus1.fetch.BlockedCycles        575125                       # Number of cycles fetch has spent blocked
system.switch_cpus1.fetch.PendingTrapStallCycles            6                       # Number of stall cycles due to pending traps
system.switch_cpus1.fetch.CacheLines          1228352                       # Number of cache lines fetched
system.switch_cpus1.fetch.IcacheSquashes       204997                       # Number of outstanding Icache misses that were squashed
system.switch_cpus1.fetch.rateDist::samples     23472058                       # Number of instructions fetched each cycle (Total)
system.switch_cpus1.fetch.rateDist::mean     0.616805                       # Number of instructions fetched each cycle (Total)
system.switch_cpus1.fetch.rateDist::stdev     1.968156                       # Number of instructions fetched each cycle (Total)
system.switch_cpus1.fetch.rateDist::underflows            0      0.00%      0.00% # Number of instructions fetched each cycle (Total)
system.switch_cpus1.fetch.rateDist::0        20868550     88.91%     88.91% # Number of instructions fetched each cycle (Total)
system.switch_cpus1.fetch.rateDist::1          279090      1.19%     90.10% # Number of instructions fetched each cycle (Total)
system.switch_cpus1.fetch.rateDist::2          327681      1.40%     91.49% # Number of instructions fetched each cycle (Total)
system.switch_cpus1.fetch.rateDist::3          179438      0.76%     92.26% # Number of instructions fetched each cycle (Total)
system.switch_cpus1.fetch.rateDist::4          208515      0.89%     93.15% # Number of instructions fetched each cycle (Total)
system.switch_cpus1.fetch.rateDist::5          114207      0.49%     93.63% # Number of instructions fetched each cycle (Total)
system.switch_cpus1.fetch.rateDist::6           77492      0.33%     93.96% # Number of instructions fetched each cycle (Total)
system.switch_cpus1.fetch.rateDist::7          201814      0.86%     94.82% # Number of instructions fetched each cycle (Total)
system.switch_cpus1.fetch.rateDist::8         1215271      5.18%    100.00% # Number of instructions fetched each cycle (Total)
system.switch_cpus1.fetch.rateDist::overflows            0      0.00%    100.00% # Number of instructions fetched each cycle (Total)
system.switch_cpus1.fetch.rateDist::min_value            0                       # Number of instructions fetched each cycle (Total)
system.switch_cpus1.fetch.rateDist::max_value            8                       # Number of instructions fetched each cycle (Total)
system.switch_cpus1.fetch.rateDist::total     23472058                       # Number of instructions fetched each cycle (Total)
system.switch_cpus1.fetch.branchRate         0.081899                       # Number of branch fetches per cycle
system.switch_cpus1.fetch.rate               0.464881                       # Number of inst fetches per cycle
system.switch_cpus1.decode.IdleCycles        19760745                       # Number of cycles decode is idle
system.switch_cpus1.decode.BlockedCycles       736830                       # Number of cycles decode is blocked
system.switch_cpus1.decode.RunCycles          2582106                       # Number of cycles decode is running
system.switch_cpus1.decode.UnblockCycles        19948                       # Number of cycles decode is unblocking
system.switch_cpus1.decode.SquashCycles        372427                       # Number of cycles decode is squashing
system.switch_cpus1.decode.BranchResolved       336871                       # Number of times decode resolved a branch
system.switch_cpus1.decode.BranchMispred         2166                       # Number of times decode detected a branch misprediction
system.switch_cpus1.decode.DecodedInsts      14450064                       # Number of instructions handled by decode
system.switch_cpus1.decode.SquashedInsts        11093                       # Number of squashed instructions handled by decode
system.switch_cpus1.rename.SquashCycles        372427                       # Number of cycles rename is squashing
system.switch_cpus1.rename.IdleCycles        19791390                       # Number of cycles rename is idle
system.switch_cpus1.rename.BlockCycles         303854                       # Number of cycles rename is blocking
system.switch_cpus1.rename.serializeStallCycles       345446                       # count of cycles rename stalled for serializing inst
system.switch_cpus1.rename.RunCycles          2572629                       # Number of cycles rename is running
system.switch_cpus1.rename.UnblockCycles        86310                       # Number of cycles rename is unblocking
system.switch_cpus1.rename.RenamedInsts      14440769                       # Number of instructions processed by rename
system.switch_cpus1.rename.ROBFullEvents           24                       # Number of times rename has blocked due to ROB full
system.switch_cpus1.rename.IQFullEvents         22748                       # Number of times rename has blocked due to IQ full
system.switch_cpus1.rename.LSQFullEvents        39969                       # Number of times rename has blocked due to LSQ full
system.switch_cpus1.rename.RenamedOperands     20076028                       # Number of destination operands rename has renamed
system.switch_cpus1.rename.RenameLookups     67232200                       # Number of register rename lookups that rename has made
system.switch_cpus1.rename.int_rename_lookups     67232200                       # Number of integer rename lookups
system.switch_cpus1.rename.CommittedMaps     17136527                       # Number of HB maps that are committed
system.switch_cpus1.rename.UndoneMaps         2939495                       # Number of HB maps that are undone due to squashing
system.switch_cpus1.rename.serializingInsts         3668                       # count of serializing insts renamed
system.switch_cpus1.rename.tempSerializingInsts         1995                       # count of temporary serializing insts renamed
system.switch_cpus1.rename.skidInsts           234265                       # count of insts added to the skid buffer
system.switch_cpus1.memDep0.insertedLoads      1378667                       # Number of loads inserted to the mem dependence unit.
system.switch_cpus1.memDep0.insertedStores       749137                       # Number of stores inserted to the mem dependence unit.
system.switch_cpus1.memDep0.conflictingLoads        19501                       # Number of conflicting loads.
system.switch_cpus1.memDep0.conflictingStores       164965                       # Number of conflicting stores.
system.switch_cpus1.iq.iqInstsAdded          14417669                       # Number of instructions added to the IQ (excludes non-spec)
system.switch_cpus1.iq.iqNonSpecInstsAdded         3674                       # Number of non-speculative instructions added to the IQ
system.switch_cpus1.iq.iqInstsIssued         13620551                       # Number of instructions issued
system.switch_cpus1.iq.iqSquashedInstsIssued        18071                       # Number of squashed instructions issued
system.switch_cpus1.iq.iqSquashedInstsExamined      1797507                       # Number of squashed instructions iterated over during squash; mainly for profiling
system.switch_cpus1.iq.iqSquashedOperandsExamined      4172369                       # Number of squashed operands that are examined and possibly removed from graph
system.switch_cpus1.iq.iqSquashedNonSpecRemoved          308                       # Number of squashed non-spec instructions that were removed
system.switch_cpus1.iq.issued_per_cycle::samples     23472058                       # Number of insts issued each cycle
system.switch_cpus1.iq.issued_per_cycle::mean     0.580288                       # Number of insts issued each cycle
system.switch_cpus1.iq.issued_per_cycle::stdev     1.269262                       # Number of insts issued each cycle
system.switch_cpus1.iq.issued_per_cycle::underflows            0      0.00%      0.00% # Number of insts issued each cycle
system.switch_cpus1.iq.issued_per_cycle::0     17727265     75.52%     75.52% # Number of insts issued each cycle
system.switch_cpus1.iq.issued_per_cycle::1      2315810      9.87%     85.39% # Number of insts issued each cycle
system.switch_cpus1.iq.issued_per_cycle::2      1239244      5.28%     90.67% # Number of insts issued each cycle
system.switch_cpus1.iq.issued_per_cycle::3       859831      3.66%     94.33% # Number of insts issued each cycle
system.switch_cpus1.iq.issued_per_cycle::4       749941      3.20%     97.53% # Number of insts issued each cycle
system.switch_cpus1.iq.issued_per_cycle::5       382812      1.63%     99.16% # Number of insts issued each cycle
system.switch_cpus1.iq.issued_per_cycle::6        91967      0.39%     99.55% # Number of insts issued each cycle
system.switch_cpus1.iq.issued_per_cycle::7        60370      0.26%     99.81% # Number of insts issued each cycle
system.switch_cpus1.iq.issued_per_cycle::8        44818      0.19%    100.00% # Number of insts issued each cycle
system.switch_cpus1.iq.issued_per_cycle::overflows            0      0.00%    100.00% # Number of insts issued each cycle
system.switch_cpus1.iq.issued_per_cycle::min_value            0                       # Number of insts issued each cycle
system.switch_cpus1.iq.issued_per_cycle::max_value            8                       # Number of insts issued each cycle
system.switch_cpus1.iq.issued_per_cycle::total     23472058                       # Number of insts issued each cycle
system.switch_cpus1.iq.fu_full::No_OpClass            0      0.00%      0.00% # attempts to use FU when none available
system.switch_cpus1.iq.fu_full::IntAlu           3610     12.45%     12.45% # attempts to use FU when none available
system.switch_cpus1.iq.fu_full::IntMult             0      0.00%     12.45% # attempts to use FU when none available
system.switch_cpus1.iq.fu_full::IntDiv              0      0.00%     12.45% # attempts to use FU when none available
system.switch_cpus1.iq.fu_full::FloatAdd            0      0.00%     12.45% # attempts to use FU when none available
system.switch_cpus1.iq.fu_full::FloatCmp            0      0.00%     12.45% # attempts to use FU when none available
system.switch_cpus1.iq.fu_full::FloatCvt            0      0.00%     12.45% # attempts to use FU when none available
system.switch_cpus1.iq.fu_full::FloatMult            0      0.00%     12.45% # attempts to use FU when none available
system.switch_cpus1.iq.fu_full::FloatDiv            0      0.00%     12.45% # attempts to use FU when none available
system.switch_cpus1.iq.fu_full::FloatSqrt            0      0.00%     12.45% # attempts to use FU when none available
system.switch_cpus1.iq.fu_full::SimdAdd             0      0.00%     12.45% # attempts to use FU when none available
system.switch_cpus1.iq.fu_full::SimdAddAcc            0      0.00%     12.45% # attempts to use FU when none available
system.switch_cpus1.iq.fu_full::SimdAlu             0      0.00%     12.45% # attempts to use FU when none available
system.switch_cpus1.iq.fu_full::SimdCmp             0      0.00%     12.45% # attempts to use FU when none available
system.switch_cpus1.iq.fu_full::SimdCvt             0      0.00%     12.45% # attempts to use FU when none available
system.switch_cpus1.iq.fu_full::SimdMisc            0      0.00%     12.45% # attempts to use FU when none available
system.switch_cpus1.iq.fu_full::SimdMult            0      0.00%     12.45% # attempts to use FU when none available
system.switch_cpus1.iq.fu_full::SimdMultAcc            0      0.00%     12.45% # attempts to use FU when none available
system.switch_cpus1.iq.fu_full::SimdShift            0      0.00%     12.45% # attempts to use FU when none available
system.switch_cpus1.iq.fu_full::SimdShiftAcc            0      0.00%     12.45% # attempts to use FU when none available
system.switch_cpus1.iq.fu_full::SimdSqrt            0      0.00%     12.45% # attempts to use FU when none available
system.switch_cpus1.iq.fu_full::SimdFloatAdd            0      0.00%     12.45% # attempts to use FU when none available
system.switch_cpus1.iq.fu_full::SimdFloatAlu            0      0.00%     12.45% # attempts to use FU when none available
system.switch_cpus1.iq.fu_full::SimdFloatCmp            0      0.00%     12.45% # attempts to use FU when none available
system.switch_cpus1.iq.fu_full::SimdFloatCvt            0      0.00%     12.45% # attempts to use FU when none available
system.switch_cpus1.iq.fu_full::SimdFloatDiv            0      0.00%     12.45% # attempts to use FU when none available
system.switch_cpus1.iq.fu_full::SimdFloatMisc            0      0.00%     12.45% # attempts to use FU when none available
system.switch_cpus1.iq.fu_full::SimdFloatMult            0      0.00%     12.45% # attempts to use FU when none available
system.switch_cpus1.iq.fu_full::SimdFloatMultAcc            0      0.00%     12.45% # attempts to use FU when none available
system.switch_cpus1.iq.fu_full::SimdFloatSqrt            0      0.00%     12.45% # attempts to use FU when none available
system.switch_cpus1.iq.fu_full::MemRead         12194     42.05%     54.50% # attempts to use FU when none available
system.switch_cpus1.iq.fu_full::MemWrite        13196     45.50%    100.00% # attempts to use FU when none available
system.switch_cpus1.iq.fu_full::IprAccess            0      0.00%    100.00% # attempts to use FU when none available
system.switch_cpus1.iq.fu_full::InstPrefetch            0      0.00%    100.00% # attempts to use FU when none available
system.switch_cpus1.iq.FU_type_0::No_OpClass            0      0.00%      0.00% # Type of FU issued
system.switch_cpus1.iq.FU_type_0::IntAlu     11404683     83.73%     83.73% # Type of FU issued
system.switch_cpus1.iq.FU_type_0::IntMult       212657      1.56%     85.29% # Type of FU issued
system.switch_cpus1.iq.FU_type_0::IntDiv            0      0.00%     85.29% # Type of FU issued
system.switch_cpus1.iq.FU_type_0::FloatAdd            0      0.00%     85.29% # Type of FU issued
system.switch_cpus1.iq.FU_type_0::FloatCmp            0      0.00%     85.29% # Type of FU issued
system.switch_cpus1.iq.FU_type_0::FloatCvt            0      0.00%     85.29% # Type of FU issued
system.switch_cpus1.iq.FU_type_0::FloatMult            0      0.00%     85.29% # Type of FU issued
system.switch_cpus1.iq.FU_type_0::FloatDiv            0      0.00%     85.29% # Type of FU issued
system.switch_cpus1.iq.FU_type_0::FloatSqrt            0      0.00%     85.29% # Type of FU issued
system.switch_cpus1.iq.FU_type_0::SimdAdd            0      0.00%     85.29% # Type of FU issued
system.switch_cpus1.iq.FU_type_0::SimdAddAcc            0      0.00%     85.29% # Type of FU issued
system.switch_cpus1.iq.FU_type_0::SimdAlu            0      0.00%     85.29% # Type of FU issued
[...]
system.cpu7.icache.ReadReq_avg_miss_latency::total 150092.961538                       # average ReadReq miss latency
system.cpu7.icache.demand_avg_miss_latency::switch_cpus7.inst 150092.961538                       # average overall miss latency
system.cpu7.icache.demand_avg_miss_latency::total 150092.961538                       # average overall miss latency
system.cpu7.icache.overall_avg_miss_latency::switch_cpus7.inst 150092.961538                       # average overall miss latency
system.cpu7.icache.overall_avg_miss_latency::total 150092.961538                       # average overall miss latency
system.cpu7.icache.blocked_cycles::no_mshrs            0                       # number of cycles access was blocked
system.cpu7.icache.blocked_cycles::no_targets            0                       # number of cycles access was blocked
system.cpu7.icache.blocked::no_mshrs                0                       # number of cycles access was blocked
system.cpu7.icache.blocked::no_targets              0                       # number of cycles access was blocked
system.cpu7.icache.avg_blocked_cycles::no_mshrs          nan                       # average number of cycles each access was blocked
system.cpu7.icache.avg_blocked_cycles::no_targets          nan                       # average number of cycles each access was blocked
system.cpu7.icache.fast_writes                      0                       # number of fast writes performed
system.cpu7.icache.cache_copies                     0                       # number of cache copies performed
system.cpu7.icache.ReadReq_mshr_hits::switch_cpus7.inst           15                       # number of ReadReq MSHR hits
system.cpu7.icache.ReadReq_mshr_hits::total           15                       # number of ReadReq MSHR hits
system.cpu7.icache.demand_mshr_hits::switch_cpus7.inst           15                       # number of demand (read+write) MSHR hits
system.cpu7.icache.demand_mshr_hits::total           15                       # number of demand (read+write) MSHR hits
system.cpu7.icache.overall_mshr_hits::switch_cpus7.inst           15                       # number of overall MSHR hits
system.cpu7.icache.overall_mshr_hits::total           15                       # number of overall MSHR hits
system.cpu7.icache.ReadReq_mshr_misses::switch_cpus7.inst           37                       # number of ReadReq MSHR misses
system.cpu7.icache.ReadReq_mshr_misses::total           37                       # number of ReadReq MSHR misses
system.cpu7.icache.demand_mshr_misses::switch_cpus7.inst           37                       # number of demand (read+write) MSHR misses
system.cpu7.icache.demand_mshr_misses::total           37                       # number of demand (read+write) MSHR misses
system.cpu7.icache.overall_mshr_misses::switch_cpus7.inst           37                       # number of overall MSHR misses
system.cpu7.icache.overall_mshr_misses::total           37                       # number of overall MSHR misses
system.cpu7.icache.ReadReq_mshr_miss_latency::switch_cpus7.inst      5727196                       # number of ReadReq MSHR miss cycles
system.cpu7.icache.ReadReq_mshr_miss_latency::total      5727196                       # number of ReadReq MSHR miss cycles
system.cpu7.icache.demand_mshr_miss_latency::switch_cpus7.inst      5727196                       # number of demand (read+write) MSHR miss cycles
system.cpu7.icache.demand_mshr_miss_latency::total      5727196                       # number of demand (read+write) MSHR miss cycles
system.cpu7.icache.overall_mshr_miss_latency::switch_cpus7.inst      5727196                       # number of overall MSHR miss cycles
system.cpu7.icache.overall_mshr_miss_latency::total      5727196                       # number of overall MSHR miss cycles
system.cpu7.icache.ReadReq_mshr_miss_rate::switch_cpus7.inst     0.000030                       # mshr miss rate for ReadReq accesses
system.cpu7.icache.ReadReq_mshr_miss_rate::total     0.000030                       # mshr miss rate for ReadReq accesses
system.cpu7.icache.demand_mshr_miss_rate::switch_cpus7.inst     0.000030                       # mshr miss rate for demand accesses
system.cpu7.icache.demand_mshr_miss_rate::total     0.000030                       # mshr miss rate for demand accesses
system.cpu7.icache.overall_mshr_miss_rate::switch_cpus7.inst     0.000030                       # mshr miss rate for overall accesses
system.cpu7.icache.overall_mshr_miss_rate::total     0.000030                       # mshr miss rate for overall accesses
system.cpu7.icache.ReadReq_avg_mshr_miss_latency::switch_cpus7.inst 154789.081081                       # average ReadReq mshr miss latency
system.cpu7.icache.ReadReq_avg_mshr_miss_latency::total 154789.081081                       # average ReadReq mshr miss latency
system.cpu7.icache.demand_avg_mshr_miss_latency::switch_cpus7.inst 154789.081081                       # average overall mshr miss latency
system.cpu7.icache.demand_avg_mshr_miss_latency::total 154789.081081                       # average overall mshr miss latency
system.cpu7.icache.overall_avg_mshr_miss_latency::switch_cpus7.inst 154789.081081                       # average overall mshr miss latency
system.cpu7.icache.overall_avg_mshr_miss_latency::total 154789.081081                       # average overall mshr miss latency
system.cpu7.icache.no_allocate_misses               0                       # Number of misses that were no-allocate
system.cpu7.dcache.replacements                  3743                       # number of replacements
system.cpu7.dcache.tagsinuse                      256                       # Cycle average of tags in use
system.cpu7.dcache.total_refs               148105495                       # Total number of references to valid blocks.
system.cpu7.dcache.sampled_refs                  3999                       # Sample count of references to valid blocks.
system.cpu7.dcache.avg_refs              37035.632658                       # Average number of references to valid blocks.
system.cpu7.dcache.warmup_cycle                     0                       # Cycle when the warmup percentage was hit.
system.cpu7.dcache.occ_blocks::switch_cpus7.data   217.040952                       # Average occupied blocks per requestor
system.cpu7.dcache.occ_blocks::cpu7.data    38.959048                       # Average occupied blocks per requestor
system.cpu7.dcache.occ_percent::switch_cpus7.data     0.847816                       # Average percentage of cache occupancy
system.cpu7.dcache.occ_percent::cpu7.data     0.152184                       # Average percentage of cache occupancy
system.cpu7.dcache.occ_percent::total               1                       # Average percentage of cache occupancy
system.cpu7.dcache.ReadReq_hits::switch_cpus7.data       998244                       # number of ReadReq hits
system.cpu7.dcache.ReadReq_hits::total         998244                       # number of ReadReq hits
system.cpu7.dcache.WriteReq_hits::switch_cpus7.data       740231                       # number of WriteReq hits
system.cpu7.dcache.WriteReq_hits::total        740231                       # number of WriteReq hits
system.cpu7.dcache.LoadLockedReq_hits::switch_cpus7.data         1884                       # number of LoadLockedReq hits
system.cpu7.dcache.LoadLockedReq_hits::total         1884                       # number of LoadLockedReq hits
system.cpu7.dcache.StoreCondReq_hits::switch_cpus7.data         1800                       # number of StoreCondReq hits
system.cpu7.dcache.StoreCondReq_hits::total         1800                       # number of StoreCondReq hits
system.cpu7.dcache.demand_hits::switch_cpus7.data      1738475                       # number of demand (read+write) hits
system.cpu7.dcache.demand_hits::total         1738475                       # number of demand (read+write) hits
system.cpu7.dcache.overall_hits::switch_cpus7.data      1738475                       # number of overall hits
system.cpu7.dcache.overall_hits::total        1738475                       # number of overall hits
system.cpu7.dcache.ReadReq_misses::switch_cpus7.data         9553                       # number of ReadReq misses
system.cpu7.dcache.ReadReq_misses::total         9553                       # number of ReadReq misses
system.cpu7.dcache.WriteReq_misses::switch_cpus7.data           90                       # number of WriteReq misses
system.cpu7.dcache.WriteReq_misses::total           90                       # number of WriteReq misses
system.cpu7.dcache.demand_misses::switch_cpus7.data         9643                       # number of demand (read+write) misses
system.cpu7.dcache.demand_misses::total          9643                       # number of demand (read+write) misses
system.cpu7.dcache.overall_misses::switch_cpus7.data         9643                       # number of overall misses
system.cpu7.dcache.overall_misses::total         9643                       # number of overall misses
system.cpu7.dcache.ReadReq_miss_latency::switch_cpus7.data    915606184                       # number of ReadReq miss cycles
system.cpu7.dcache.ReadReq_miss_latency::total    915606184                       # number of ReadReq miss cycles
system.cpu7.dcache.WriteReq_miss_latency::switch_cpus7.data      6698517                       # number of WriteReq miss cycles
system.cpu7.dcache.WriteReq_miss_latency::total      6698517                       # number of WriteReq miss cycles
system.cpu7.dcache.demand_miss_latency::switch_cpus7.data    922304701                       # number of demand (read+write) miss cycles
system.cpu7.dcache.demand_miss_latency::total    922304701                       # number of demand (read+write) miss cycles
system.cpu7.dcache.overall_miss_latency::switch_cpus7.data    922304701                       # number of overall miss cycles
system.cpu7.dcache.overall_miss_latency::total    922304701                       # number of overall miss cycles
system.cpu7.dcache.ReadReq_accesses::switch_cpus7.data      1007797                       # number of ReadReq accesses(hits+misses)
system.cpu7.dcache.ReadReq_accesses::total      1007797                       # number of ReadReq accesses(hits+misses)
system.cpu7.dcache.WriteReq_accesses::switch_cpus7.data       740321                       # number of WriteReq accesses(hits+misses)
system.cpu7.dcache.WriteReq_accesses::total       740321                       # number of WriteReq accesses(hits+misses)
system.cpu7.dcache.LoadLockedReq_accesses::switch_cpus7.data         1884                       # number of LoadLockedReq accesses(hits+misses)
system.cpu7.dcache.LoadLockedReq_accesses::total         1884                       # number of LoadLockedReq accesses(hits+misses)
system.cpu7.dcache.StoreCondReq_accesses::switch_cpus7.data         1800                       # number of StoreCondReq accesses(hits+misses)
system.cpu7.dcache.StoreCondReq_accesses::total         1800                       # number of StoreCondReq accesses(hits+misses)
system.cpu7.dcache.demand_accesses::switch_cpus7.data      1748118                       # number of demand (read+write) accesses
system.cpu7.dcache.demand_accesses::total      1748118                       # number of demand (read+write) accesses
system.cpu7.dcache.overall_accesses::switch_cpus7.data      1748118                       # number of overall (read+write) accesses
system.cpu7.dcache.overall_accesses::total      1748118                       # number of overall (read+write) accesses
system.cpu7.dcache.ReadReq_miss_rate::switch_cpus7.data     0.009479                       # miss rate for ReadReq accesses
system.cpu7.dcache.ReadReq_miss_rate::total     0.009479                       # miss rate for ReadReq accesses
system.cpu7.dcache.WriteReq_miss_rate::switch_cpus7.data     0.000122                       # miss rate for WriteReq accesses
system.cpu7.dcache.WriteReq_miss_rate::total     0.000122                       # miss rate for WriteReq accesses
system.cpu7.dcache.demand_miss_rate::switch_cpus7.data     0.005516                       # miss rate for demand accesses
system.cpu7.dcache.demand_miss_rate::total     0.005516                       # miss rate for demand accesses
system.cpu7.dcache.overall_miss_rate::switch_cpus7.data     0.005516                       # miss rate for overall accesses
system.cpu7.dcache.overall_miss_rate::total     0.005516                       # miss rate for overall accesses
system.cpu7.dcache.ReadReq_avg_miss_latency::switch_cpus7.data 95844.884748                       # average ReadReq miss latency
system.cpu7.dcache.ReadReq_avg_miss_latency::total 95844.884748                       # average ReadReq miss latency
system.cpu7.dcache.WriteReq_avg_miss_latency::switch_cpus7.data 74427.966667                       # average WriteReq miss latency
system.cpu7.dcache.WriteReq_avg_miss_latency::total 74427.966667                       # average WriteReq miss latency
system.cpu7.dcache.demand_avg_miss_latency::switch_cpus7.data 95644.996474                       # average overall miss latency
system.cpu7.dcache.demand_avg_miss_latency::total 95644.996474                       # average overall miss latency
system.cpu7.dcache.overall_avg_miss_latency::switch_cpus7.data 95644.996474                       # average overall miss latency
system.cpu7.dcache.overall_avg_miss_latency::total 95644.996474                       # average overall miss latency
system.cpu7.dcache.blocked_cycles::no_mshrs            0                       # number of cycles access was blocked
system.cpu7.dcache.blocked_cycles::no_targets            0                       # number of cycles access was blocked
system.cpu7.dcache.blocked::no_mshrs                0                       # number of cycles access was blocked
system.cpu7.dcache.blocked::no_targets              0                       # number of cycles access was blocked
system.cpu7.dcache.avg_blocked_cycles::no_mshrs          nan                       # average number of cycles each access was blocked
system.cpu7.dcache.avg_blocked_cycles::no_targets          nan                       # average number of cycles each access was blocked
system.cpu7.dcache.fast_writes                      0                       # number of fast writes performed
system.cpu7.dcache.cache_copies                     0                       # number of cache copies performed
system.cpu7.dcache.writebacks::writebacks          821                       # number of writebacks
system.cpu7.dcache.writebacks::total              821                       # number of writebacks
system.cpu7.dcache.ReadReq_mshr_hits::switch_cpus7.data         5827                       # number of ReadReq MSHR hits
system.cpu7.dcache.ReadReq_mshr_hits::total         5827                       # number of ReadReq MSHR hits
system.cpu7.dcache.WriteReq_mshr_hits::switch_cpus7.data           73                       # number of WriteReq MSHR hits
system.cpu7.dcache.WriteReq_mshr_hits::total           73                       # number of WriteReq MSHR hits
system.cpu7.dcache.demand_mshr_hits::switch_cpus7.data         5900                       # number of demand (read+write) MSHR hits
system.cpu7.dcache.demand_mshr_hits::total         5900                       # number of demand (read+write) MSHR hits
system.cpu7.dcache.overall_mshr_hits::switch_cpus7.data         5900                       # number of overall MSHR hits
system.cpu7.dcache.overall_mshr_hits::total         5900                       # number of overall MSHR hits
system.cpu7.dcache.ReadReq_mshr_misses::switch_cpus7.data         3726                       # number of ReadReq MSHR misses
system.cpu7.dcache.ReadReq_mshr_misses::total         3726                       # number of ReadReq MSHR misses
system.cpu7.dcache.WriteReq_mshr_misses::switch_cpus7.data           17                       # number of WriteReq MSHR misses
system.cpu7.dcache.WriteReq_mshr_misses::total           17                       # number of WriteReq MSHR misses
system.cpu7.dcache.demand_mshr_misses::switch_cpus7.data         3743                       # number of demand (read+write) MSHR misses
system.cpu7.dcache.demand_mshr_misses::total         3743                       # number of demand (read+write) MSHR misses
system.cpu7.dcache.overall_mshr_misses::switch_cpus7.data         3743                       # number of overall MSHR misses
system.cpu7.dcache.overall_mshr_misses::total         3743                       # number of overall MSHR misses
system.cpu7.dcache.ReadReq_mshr_miss_latency::switch_cpus7.data    320080552                       # number of ReadReq MSHR miss cycles
system.cpu7.dcache.ReadReq_mshr_miss_latency::total    320080552                       # number of ReadReq MSHR miss cycles
system.cpu7.dcache.WriteReq_mshr_miss_latency::switch_cpus7.data      1186704                       # number of WriteReq MSHR miss cycles
system.cpu7.dcache.WriteReq_mshr_miss_latency::total      1186704                       # number of WriteReq MSHR miss cycles
system.cpu7.dcache.demand_mshr_miss_latency::switch_cpus7.data    321267256                       # number of demand (read+write) MSHR miss cycles
system.cpu7.dcache.demand_mshr_miss_latency::total    321267256                       # number of demand (read+write) MSHR miss cycles
system.cpu7.dcache.overall_mshr_miss_latency::switch_cpus7.data    321267256                       # number of overall MSHR miss cycles
system.cpu7.dcache.overall_mshr_miss_latency::total    321267256                       # number of overall MSHR miss cycles
system.cpu7.dcache.ReadReq_mshr_miss_rate::switch_cpus7.data     0.003697                       # mshr miss rate for ReadReq accesses
system.cpu7.dcache.ReadReq_mshr_miss_rate::total     0.003697                       # mshr miss rate for ReadReq accesses
system.cpu7.dcache.WriteReq_mshr_miss_rate::switch_cpus7.data     0.000023                       # mshr miss rate for WriteReq accesses
system.cpu7.dcache.WriteReq_mshr_miss_rate::total     0.000023                       # mshr miss rate for WriteReq accesses
system.cpu7.dcache.demand_mshr_miss_rate::switch_cpus7.data     0.002141                       # mshr miss rate for demand accesses
system.cpu7.dcache.demand_mshr_miss_rate::total     0.002141                       # mshr miss rate for demand accesses
system.cpu7.dcache.overall_mshr_miss_rate::switch_cpus7.data     0.002141                       # mshr miss rate for overall accesses
system.cpu7.dcache.overall_mshr_miss_rate::total     0.002141                       # mshr miss rate for overall accesses
system.cpu7.dcache.ReadReq_avg_mshr_miss_latency::switch_cpus7.data 85904.603328                       # average ReadReq mshr miss latency
system.cpu7.dcache.ReadReq_avg_mshr_miss_latency::total 85904.603328                       # average ReadReq mshr miss latency
system.cpu7.dcache.WriteReq_avg_mshr_miss_latency::switch_cpus7.data 69806.117647                       # average WriteReq mshr miss latency
system.cpu7.dcache.WriteReq_avg_mshr_miss_latency::total 69806.117647                       # average WriteReq mshr miss latency
system.cpu7.dcache.demand_avg_mshr_miss_latency::switch_cpus7.data 85831.487042                       # average overall mshr miss latency
system.cpu7.dcache.demand_avg_mshr_miss_latency::total 85831.487042                       # average overall mshr miss latency
system.cpu7.dcache.overall_avg_mshr_miss_latency::switch_cpus7.data 85831.487042                       # average overall mshr miss latency
system.cpu7.dcache.overall_avg_mshr_miss_latency::total 85831.487042                       # average overall mshr miss latency
system.cpu7.dcache.no_allocate_misses               0                       # Number of misses that were no-allocate

---------- End Simulation Statistics   ----------
