
---------- Begin Simulation Statistics ----------
sim_seconds                                  0.003596                       # Number of seconds simulated
sim_ticks                                  3595807680                       # Number of ticks simulated
final_tick                               530562170865                       # Number of ticks from beginning of simulation (restored from checkpoints and never reset)
sim_freq                                 1000000000000                       # Frequency of simulated ticks
host_inst_rate                                 387946                       # Simulator instruction rate (inst/s)
host_op_rate                                   490441                       # Simulator op (including micro ops) rate (op/s)
host_tick_rate                                 345466                       # Simulator tick rate (ticks/s)
host_mem_usage                               16919160                       # Number of bytes of host memory used
host_seconds                                 10408.57                       # Real time elapsed on the host
sim_insts                                  4037961256                       # Number of instructions simulated
sim_ops                                    5104792066                       # Number of ops (including micro ops) simulated
system.physmem.bytes_read::switch_cpus0.inst         1792                       # Number of bytes read from this memory
system.physmem.bytes_read::switch_cpus0.data       227456                       # Number of bytes read from this memory
system.physmem.bytes_read::switch_cpus1.inst         1920                       # Number of bytes read from this memory
system.physmem.bytes_read::switch_cpus1.data        82304                       # Number of bytes read from this memory
system.physmem.bytes_read::switch_cpus2.inst         2048                       # Number of bytes read from this memory
system.physmem.bytes_read::switch_cpus2.data        73600                       # Number of bytes read from this memory
system.physmem.bytes_read::switch_cpus3.inst         1664                       # Number of bytes read from this memory
system.physmem.bytes_read::switch_cpus3.data       128128                       # Number of bytes read from this memory
system.physmem.bytes_read::total               518912                       # Number of bytes read from this memory
system.physmem.bytes_inst_read::switch_cpus0.inst         1792                       # Number of instructions bytes read from this memory
system.physmem.bytes_inst_read::switch_cpus1.inst         1920                       # Number of instructions bytes read from this memory
system.physmem.bytes_inst_read::switch_cpus2.inst         2048                       # Number of instructions bytes read from this memory
system.physmem.bytes_inst_read::switch_cpus3.inst         1664                       # Number of instructions bytes read from this memory
system.physmem.bytes_inst_read::total            7424                       # Number of instructions bytes read from this memory
system.physmem.bytes_written::writebacks       259968                       # Number of bytes written to this memory
system.physmem.bytes_written::total            259968                       # Number of bytes written to this memory
system.physmem.num_reads::switch_cpus0.inst           14                       # Number of read requests responded to by this memory
system.physmem.num_reads::switch_cpus0.data         1777                       # Number of read requests responded to by this memory
system.physmem.num_reads::switch_cpus1.inst           15                       # Number of read requests responded to by this memory
system.physmem.num_reads::switch_cpus1.data          643                       # Number of read requests responded to by this memory
system.physmem.num_reads::switch_cpus2.inst           16                       # Number of read requests responded to by this memory
system.physmem.num_reads::switch_cpus2.data          575                       # Number of read requests responded to by this memory
system.physmem.num_reads::switch_cpus3.inst           13                       # Number of read requests responded to by this memory
system.physmem.num_reads::switch_cpus3.data         1001                       # Number of read requests responded to by this memory
system.physmem.num_reads::total                  4054                       # Number of read requests responded to by this memory
system.physmem.num_writes::writebacks            2031                       # Number of write requests responded to by this memory
system.physmem.num_writes::functional               0                       # Number of write requests responded to by this memory
system.physmem.num_writes::interrupt                0                       # Number of write requests responded to by this memory
system.physmem.num_writes::switch_cpus0.dtb.walker            0                       # Number of write requests responded to by this memory
system.physmem.num_writes::switch_cpus0.itb.walker            0                       # Number of write requests responded to by this memory
system.physmem.num_writes::switch_cpus0.inst            0                       # Number of write requests responded to by this memory
system.physmem.num_writes::switch_cpus0.data            0                       # Number of write requests responded to by this memory
system.physmem.num_writes::switch_cpus1.dtb.walker            0                       # Number of write requests responded to by this memory
system.physmem.num_writes::switch_cpus1.itb.walker            0                       # Number of write requests responded to by this memory
system.physmem.num_writes::switch_cpus1.inst            0                       # Number of write requests responded to by this memory
system.physmem.num_writes::switch_cpus1.data            0                       # Number of write requests responded to by this memory
system.physmem.num_writes::switch_cpus2.dtb.walker            0                       # Number of write requests responded to by this memory
system.physmem.num_writes::switch_cpus2.itb.walker            0                       # Number of write requests responded to by this memory
system.physmem.num_writes::switch_cpus2.inst            0                       # Number of write requests responded to by this memory
system.physmem.num_writes::switch_cpus2.data            0                       # Number of write requests responded to by this memory
system.physmem.num_writes::switch_cpus3.dtb.walker            0                       # Number of write requests responded to by this memory
system.physmem.num_writes::switch_cpus3.itb.walker            0                       # Number of write requests responded to by this memory
system.physmem.num_writes::switch_cpus3.inst            0                       # Number of write requests responded to by this memory
system.physmem.num_writes::switch_cpus3.data            0                       # Number of write requests responded to by this memory
system.physmem.num_writes::cpu0.dtb.walker            0                       # Number of write requests responded to by this memory
system.physmem.num_writes::cpu0.itb.walker            0                       # Number of write requests responded to by this memory
system.physmem.num_writes::cpu0.inst                0                       # Number of write requests responded to by this memory
system.physmem.num_writes::cpu0.data                0                       # Number of write requests responded to by this memory
system.physmem.num_writes::cpu1.dtb.walker            0                       # Number of write requests responded to by this memory
system.physmem.num_writes::cpu1.itb.walker            0                       # Number of write requests responded to by this memory
system.physmem.num_writes::cpu1.inst                0                       # Number of write requests responded to by this memory
system.physmem.num_writes::cpu1.data                0                       # Number of write requests responded to by this memory
system.physmem.num_writes::cpu2.dtb.walker            0                       # Number of write requests responded to by this memory
system.physmem.num_writes::cpu2.itb.walker            0                       # Number of write requests responded to by this memory
system.physmem.num_writes::cpu2.inst                0                       # Number of write requests responded to by this memory
system.physmem.num_writes::cpu2.data                0                       # Number of write requests responded to by this memory
system.physmem.num_writes::cpu3.dtb.walker            0                       # Number of write requests responded to by this memory
system.physmem.num_writes::cpu3.itb.walker            0                       # Number of write requests responded to by this memory
system.physmem.num_writes::cpu3.inst                0                       # Number of write requests responded to by this memory
system.physmem.num_writes::cpu3.data                0                       # Number of write requests responded to by this memory
system.physmem.num_writes::total                 2031                       # Number of write requests responded to by this memory
system.physmem.bw_read::switch_cpus0.inst       498358                       # Total read bandwidth from this memory (bytes/s)
system.physmem.bw_read::switch_cpus0.data     63255886                       # Total read bandwidth from this memory (bytes/s)
system.physmem.bw_read::switch_cpus1.inst       533955                       # Total read bandwidth from this memory (bytes/s)
system.physmem.bw_read::switch_cpus1.data     22888877                       # Total read bandwidth from this memory (bytes/s)
system.physmem.bw_read::switch_cpus2.inst       569552                       # Total read bandwidth from this memory (bytes/s)
system.physmem.bw_read::switch_cpus2.data     20468280                       # Total read bandwidth from this memory (bytes/s)
system.physmem.bw_read::switch_cpus3.inst       462761                       # Total read bandwidth from this memory (bytes/s)
system.physmem.bw_read::switch_cpus3.data     35632606                       # Total read bandwidth from this memory (bytes/s)
system.physmem.bw_read::total               144310276                       # Total read bandwidth from this memory (bytes/s)
system.physmem.bw_inst_read::switch_cpus0.inst       498358                       # Instruction read bandwidth from this memory (bytes/s)
system.physmem.bw_inst_read::switch_cpus1.inst       533955                       # Instruction read bandwidth from this memory (bytes/s)
system.physmem.bw_inst_read::switch_cpus2.inst       569552                       # Instruction read bandwidth from this memory (bytes/s)
system.physmem.bw_inst_read::switch_cpus3.inst       462761                       # Instruction read bandwidth from this memory (bytes/s)
system.physmem.bw_inst_read::total            2064627                       # Instruction read bandwidth from this memory (bytes/s)
system.physmem.bw_write::writebacks          72297526                       # Write bandwidth from this memory (bytes/s)
system.physmem.bw_write::total               72297526                       # Write bandwidth from this memory (bytes/s)
system.physmem.bw_total::writebacks          72297526                       # Total bandwidth to/from this memory (bytes/s)
system.physmem.bw_total::switch_cpus0.inst       498358                       # Total bandwidth to/from this memory (bytes/s)
system.physmem.bw_total::switch_cpus0.data     63255886                       # Total bandwidth to/from this memory (bytes/s)
system.physmem.bw_total::switch_cpus1.inst       533955                       # Total bandwidth to/from this memory (bytes/s)
system.physmem.bw_total::switch_cpus1.data     22888877                       # Total bandwidth to/from this memory (bytes/s)
system.physmem.bw_total::switch_cpus2.inst       569552                       # Total bandwidth to/from this memory (bytes/s)
system.physmem.bw_total::switch_cpus2.data     20468280                       # Total bandwidth to/from this memory (bytes/s)
system.physmem.bw_total::switch_cpus3.inst       462761                       # Total bandwidth to/from this memory (bytes/s)
system.physmem.bw_total::switch_cpus3.data     35632606                       # Total bandwidth to/from this memory (bytes/s)
system.physmem.bw_total::total              216607803                       # Total bandwidth to/from this memory (bytes/s)
system.switch_cpus0.dtb.inst_hits                   0                       # ITB inst hits
system.switch_cpus0.dtb.inst_misses                 0                       # ITB inst misses
system.switch_cpus0.dtb.read_hits                   0                       # DTB read hits
system.switch_cpus0.dtb.read_misses                 0                       # DTB read misses
system.switch_cpus0.dtb.write_hits                  0                       # DTB write hits
system.switch_cpus0.dtb.write_misses                0                       # DTB write misses
system.switch_cpus0.dtb.flush_tlb                   0                       # Number of times complete TLB was flushed
system.switch_cpus0.dtb.flush_tlb_mva               0                       # Number of times TLB was flushed by MVA
system.switch_cpus0.dtb.flush_tlb_mva_asid            0                       # Number of times TLB was flushed by MVA & ASID
system.switch_cpus0.dtb.flush_tlb_asid              0                       # Number of times TLB was flushed by ASID
system.switch_cpus0.dtb.flush_entries               0                       # Number of entries that have been flushed from TLB
system.switch_cpus0.dtb.align_faults                0                       # Number of TLB faults due to alignment restrictions
system.switch_cpus0.dtb.prefetch_faults             0                       # Number of TLB faults due to prefetch
system.switch_cpus0.dtb.domain_faults               0                       # Number of TLB faults due to domain restrictions
system.switch_cpus0.dtb.perms_faults                0                       # Number of TLB faults due to permissions restrictions
system.switch_cpus0.dtb.read_accesses               0                       # DTB read accesses
system.switch_cpus0.dtb.write_accesses              0                       # DTB write accesses
system.switch_cpus0.dtb.inst_accesses               0                       # ITB inst accesses
system.switch_cpus0.dtb.hits                        0                       # DTB hits
system.switch_cpus0.dtb.misses                      0                       # DTB misses
system.switch_cpus0.dtb.accesses                    0                       # DTB accesses
system.switch_cpus0.itb.inst_hits                   0                       # ITB inst hits
system.switch_cpus0.itb.inst_misses                 0                       # ITB inst misses
system.switch_cpus0.itb.read_hits                   0                       # DTB read hits
system.switch_cpus0.itb.read_misses                 0                       # DTB read misses
system.switch_cpus0.itb.write_hits                  0                       # DTB write hits
system.switch_cpus0.itb.write_misses                0                       # DTB write misses
system.switch_cpus0.itb.flush_tlb                   0                       # Number of times complete TLB was flushed
system.switch_cpus0.itb.flush_tlb_mva               0                       # Number of times TLB was flushed by MVA
system.switch_cpus0.itb.flush_tlb_mva_asid            0                       # Number of times TLB was flushed by MVA & ASID
system.switch_cpus0.itb.flush_tlb_asid              0                       # Number of times TLB was flushed by ASID
system.switch_cpus0.itb.flush_entries               0                       # Number of entries that have been flushed from TLB
system.switch_cpus0.itb.align_faults                0                       # Number of TLB faults due to alignment restrictions
system.switch_cpus0.itb.prefetch_faults             0                       # Number of TLB faults due to prefetch
system.switch_cpus0.itb.domain_faults               0                       # Number of TLB faults due to domain restrictions
system.switch_cpus0.itb.perms_faults                0                       # Number of TLB faults due to permissions restrictions
system.switch_cpus0.itb.read_accesses               0                       # DTB read accesses
system.switch_cpus0.itb.write_accesses              0                       # DTB write accesses
system.switch_cpus0.itb.inst_accesses               0                       # ITB inst accesses
system.switch_cpus0.itb.hits                        0                       # DTB hits
system.switch_cpus0.itb.misses                      0                       # DTB misses
system.switch_cpus0.itb.accesses                    0                       # DTB accesses
system.cpu0.workload.num_syscalls                   0                       # Number of system calls
system.switch_cpus0.numCycles                 8623041                       # number of cpu cycles simulated
system.switch_cpus0.numWorkItemsStarted             0                       # number of work items this cpu started
system.switch_cpus0.numWorkItemsCompleted            0                       # number of work items this cpu completed
system.switch_cpus0.BPredUnit.lookups         3128599                       # Number of BP lookups
system.switch_cpus0.BPredUnit.condPredicted      2542847                       # Number of conditional branches predicted
system.switch_cpus0.BPredUnit.condIncorrect       214688                       # Number of conditional branches incorrect
system.switch_cpus0.BPredUnit.BTBLookups      1276264                       # Number of BTB lookups
system.switch_cpus0.BPredUnit.BTBHits         1215264                       # Number of BTB hits
system.switch_cpus0.BPredUnit.BTBCorrect            0                       # Number of correct BTB predictions (this stat may not work properly.
system.switch_cpus0.BPredUnit.usedRAS          328032                       # Number of times the RAS was used to get a target.
system.switch_cpus0.BPredUnit.RASInCorrect         9091                       # Number of incorrect RAS predictions.
system.switch_cpus0.fetch.icacheStallCycles      3127140                       # Number of cycles fetch is stalled on an Icache miss
system.switch_cpus0.fetch.Insts              17314497                       # Number of instructions fetch has processed
system.switch_cpus0.fetch.Branches            3128599                       # Number of branches that fetch encountered
system.switch_cpus0.fetch.predictedBranches      1543296                       # Number of branches that fetch has predicted taken
system.switch_cpus0.fetch.Cycles              3805412                       # Number of cycles fetch has run and was not squashing or blocked
system.switch_cpus0.fetch.SquashCycles        1149391                       # Number of cycles fetch has spent squashing
system.switch_cpus0.fetch.BlockedCycles        636527                       # Number of cycles fetch has spent blocked
system.switch_cpus0.fetch.CacheLines          1531533                       # Number of cache lines fetched
system.switch_cpus0.fetch.IcacheSquashes        92475                       # Number of outstanding Icache misses that were squashed
system.switch_cpus0.fetch.rateDist::samples      8499125                       # Number of instructions fetched each cycle (Total)
system.switch_cpus0.fetch.rateDist::mean     2.517524                       # Number of instructions fetched each cycle (Total)
system.switch_cpus0.fetch.rateDist::stdev     3.308440                       # Number of instructions fetched each cycle (Total)
system.switch_cpus0.fetch.rateDist::underflows            0      0.00%      0.00% # Number of instructions fetched each cycle (Total)
system.switch_cpus0.fetch.rateDist::0         4693713     55.23%     55.23% # Number of instructions fetched each cycle (Total)
system.switch_cpus0.fetch.rateDist::1          333942      3.93%     59.15% # Number of instructions fetched each cycle (Total)
system.switch_cpus0.fetch.rateDist::2          270149      3.18%     62.33% # Number of instructions fetched each cycle (Total)
system.switch_cpus0.fetch.rateDist::3          653853      7.69%     70.03% # Number of instructions fetched each cycle (Total)
system.switch_cpus0.fetch.rateDist::4          179051      2.11%     72.13% # Number of instructions fetched each cycle (Total)
system.switch_cpus0.fetch.rateDist::5          227451      2.68%     74.81% # Number of instructions fetched each cycle (Total)
system.switch_cpus0.fetch.rateDist::6          163854      1.93%     76.74% # Number of instructions fetched each cycle (Total)
system.switch_cpus0.fetch.rateDist::7           92525      1.09%     77.83% # Number of instructions fetched each cycle (Total)
system.switch_cpus0.fetch.rateDist::8         1884587     22.17%    100.00% # Number of instructions fetched each cycle (Total)
system.switch_cpus0.fetch.rateDist::overflows            0      0.00%    100.00% # Number of instructions fetched each cycle (Total)
system.switch_cpus0.fetch.rateDist::min_value            0                       # Number of instructions fetched each cycle (Total)
system.switch_cpus0.fetch.rateDist::max_value            8                       # Number of instructions fetched each cycle (Total)
system.switch_cpus0.fetch.rateDist::total      8499125                       # Number of instructions fetched each cycle (Total)
system.switch_cpus0.fetch.branchRate         0.362819                       # Number of branch fetches per cycle
system.switch_cpus0.fetch.rate               2.007934                       # Number of inst fetches per cycle
system.switch_cpus0.decode.IdleCycles         3273899                       # Number of cycles decode is idle
system.switch_cpus0.decode.BlockedCycles       617262                       # Number of cycles decode is blocked
system.switch_cpus0.decode.RunCycles          3657710                       # Number of cycles decode is running
system.switch_cpus0.decode.UnblockCycles        24892                       # Number of cycles decode is unblocking
system.switch_cpus0.decode.SquashCycles        925360                       # Number of cycles decode is squashing
system.switch_cpus0.decode.BranchResolved       533798                       # Number of times decode resolved a branch
system.switch_cpus0.decode.BranchMispred         4754                       # Number of times decode detected a branch misprediction
system.switch_cpus0.decode.DecodedInsts      20694730                       # Number of instructions handled by decode
system.switch_cpus0.decode.SquashedInsts        10602                       # Number of squashed instructions handled by decode
system.switch_cpus0.rename.SquashCycles        925360                       # Number of cycles rename is squashing
system.switch_cpus0.rename.IdleCycles         3515528                       # Number of cycles rename is idle
system.switch_cpus0.rename.BlockCycles         136368                       # Number of cycles rename is blocking
system.switch_cpus0.rename.serializeStallCycles       127306                       # count of cycles rename stalled for serializing inst
system.switch_cpus0.rename.RunCycles          3435363                       # Number of cycles rename is running
system.switch_cpus0.rename.UnblockCycles       359198                       # Number of cycles rename is unblocking
system.switch_cpus0.rename.RenamedInsts      19955790                       # Number of instructions processed by rename
system.switch_cpus0.rename.ROBFullEvents         2951                       # Number of times rename has blocked due to ROB full
system.switch_cpus0.rename.IQFullEvents        148385                       # Number of times rename has blocked due to IQ full
system.switch_cpus0.rename.LSQFullEvents       112270                       # Number of times rename has blocked due to LSQ full
system.switch_cpus0.rename.FullRegisterEvents          323                       # Number of times there has been no free registers
system.switch_cpus0.rename.RenamedOperands     27928917                       # Number of destination operands rename has renamed
system.switch_cpus0.rename.RenameLookups     93131021                       # Number of register rename lookups that rename has made
system.switch_cpus0.rename.int_rename_lookups     93131021                       # Number of integer rename lookups
system.switch_cpus0.rename.CommittedMaps     17069291                       # Number of HB maps that are committed
system.switch_cpus0.rename.UndoneMaps        10859607                       # Number of HB maps that are undone due to squashing
system.switch_cpus0.rename.serializingInsts         4090                       # count of serializing insts renamed
system.switch_cpus0.rename.tempSerializingInsts         2326                       # count of temporary serializing insts renamed
system.switch_cpus0.rename.skidInsts           987475                       # count of insts added to the skid buffer
system.switch_cpus0.memDep0.insertedLoads      1865544                       # Number of loads inserted to the mem dependence unit.
system.switch_cpus0.memDep0.insertedStores       946652                       # Number of stores inserted to the mem dependence unit.
system.switch_cpus0.memDep0.conflictingLoads        14773                       # Number of conflicting loads.
system.switch_cpus0.memDep0.conflictingStores       384233                       # Number of conflicting stores.
system.switch_cpus0.iq.iqInstsAdded          18862569                       # Number of instructions added to the IQ (excludes non-spec)
system.switch_cpus0.iq.iqNonSpecInstsAdded         3954                       # Number of non-speculative instructions added to the IQ
system.switch_cpus0.iq.iqInstsIssued         14951486                       # Number of instructions issued
system.switch_cpus0.iq.iqSquashedInstsIssued        29295                       # Number of squashed instructions issued
system.switch_cpus0.iq.iqSquashedInstsExamined      6553547                       # Number of squashed instructions iterated over during squash; mainly for profiling
system.switch_cpus0.iq.iqSquashedOperandsExamined     20037455                       # Number of squashed operands that are examined and possibly removed from graph
system.switch_cpus0.iq.iqSquashedNonSpecRemoved          650                       # Number of squashed non-spec instructions that were removed
system.switch_cpus0.iq.issued_per_cycle::samples      8499125                       # Number of insts issued each cycle
system.switch_cpus0.iq.issued_per_cycle::mean     1.759179                       # Number of insts issued each cycle
system.switch_cpus0.iq.issued_per_cycle::stdev     1.882530                       # Number of insts issued each cycle
system.switch_cpus0.iq.issued_per_cycle::underflows            0      0.00%      0.00% # Number of insts issued each cycle
system.switch_cpus0.iq.issued_per_cycle::0      2952394     34.74%     34.74% # Number of insts issued each cycle
system.switch_cpus0.iq.issued_per_cycle::1      1808619     21.28%     56.02% # Number of insts issued each cycle
system.switch_cpus0.iq.issued_per_cycle::2      1234816     14.53%     70.55% # Number of insts issued each cycle
system.switch_cpus0.iq.issued_per_cycle::3       885103     10.41%     80.96% # Number of insts issued each cycle
system.switch_cpus0.iq.issued_per_cycle::4       750304      8.83%     89.79% # Number of insts issued each cycle
system.switch_cpus0.iq.issued_per_cycle::5       397443      4.68%     94.46% # Number of insts issued each cycle
system.switch_cpus0.iq.issued_per_cycle::6       335177      3.94%     98.41% # Number of insts issued each cycle
system.switch_cpus0.iq.issued_per_cycle::7        63719      0.75%     99.16% # Number of insts issued each cycle
system.switch_cpus0.iq.issued_per_cycle::8        71550      0.84%    100.00% # Number of insts issued each cycle
system.switch_cpus0.iq.issued_per_cycle::overflows            0      0.00%    100.00% # Number of insts issued each cycle
system.switch_cpus0.iq.issued_per_cycle::min_value            0                       # Number of insts issued each cycle
system.switch_cpus0.iq.issued_per_cycle::max_value            8                       # Number of insts issued each cycle
system.switch_cpus0.iq.issued_per_cycle::total      8499125                       # Number of insts issued each cycle
system.switch_cpus0.iq.fu_full::No_OpClass            0      0.00%      0.00% # attempts to use FU when none available
system.switch_cpus0.iq.fu_full::IntAlu          87628     70.96%     70.96% # attempts to use FU when none available
system.switch_cpus0.iq.fu_full::IntMult             0      0.00%     70.96% # attempts to use FU when none available
system.switch_cpus0.iq.fu_full::IntDiv              0      0.00%     70.96% # attempts to use FU when none available
system.switch_cpus0.iq.fu_full::FloatAdd            0      0.00%     70.96% # attempts to use FU when none available
system.switch_cpus0.iq.fu_full::FloatCmp            0      0.00%     70.96% # attempts to use FU when none available
system.switch_cpus0.iq.fu_full::FloatCvt            0      0.00%     70.96% # attempts to use FU when none available
system.switch_cpus0.iq.fu_full::FloatMult            0      0.00%     70.96% # attempts to use FU when none available
system.switch_cpus0.iq.fu_full::FloatDiv            0      0.00%     70.96% # attempts to use FU when none available
system.switch_cpus0.iq.fu_full::FloatSqrt            0      0.00%     70.96% # attempts to use FU when none available
system.switch_cpus0.iq.fu_full::SimdAdd             0      0.00%     70.96% # attempts to use FU when none available
system.switch_cpus0.iq.fu_full::SimdAddAcc            0      0.00%     70.96% # attempts to use FU when none available
system.switch_cpus0.iq.fu_full::SimdAlu             0      0.00%     70.96% # attempts to use FU when none available
system.switch_cpus0.iq.fu_full::SimdCmp             0      0.00%     70.96% # attempts to use FU when none available
system.switch_cpus0.iq.fu_full::SimdCvt             0      0.00%     70.96% # attempts to use FU when none available
system.switch_cpus0.iq.fu_full::SimdMisc            0      0.00%     70.96% # attempts to use FU when none available
system.switch_cpus0.iq.fu_full::SimdMult            0      0.00%     70.96% # attempts to use FU when none available
system.switch_cpus0.iq.fu_full::SimdMultAcc            0      0.00%     70.96% # attempts to use FU when none available
system.switch_cpus0.iq.fu_full::SimdShift            0      0.00%     70.96% # attempts to use FU when none available
system.switch_cpus0.iq.fu_full::SimdShiftAcc            0      0.00%     70.96% # attempts to use FU when none available
system.switch_cpus0.iq.fu_full::SimdSqrt            0      0.00%     70.96% # attempts to use FU when none available
system.switch_cpus0.iq.fu_full::SimdFloatAdd            0      0.00%     70.96% # attempts to use FU when none available
system.switch_cpus0.iq.fu_full::SimdFloatAlu            0      0.00%     70.96% # attempts to use FU when none available
system.switch_cpus0.iq.fu_full::SimdFloatCmp            0      0.00%     70.96% # attempts to use FU when none available
system.switch_cpus0.iq.fu_full::SimdFloatCvt            0      0.00%     70.96% # attempts to use FU when none available
system.switch_cpus0.iq.fu_full::SimdFloatDiv            0      0.00%     70.96% # attempts to use FU when none available
system.switch_cpus0.iq.fu_full::SimdFloatMisc            0      0.00%     70.96% # attempts to use FU when none available
system.switch_cpus0.iq.fu_full::SimdFloatMult            0      0.00%     70.96% # attempts to use FU when none available
system.switch_cpus0.iq.fu_full::SimdFloatMultAcc            0      0.00%     70.96% # attempts to use FU when none available
system.switch_cpus0.iq.fu_full::SimdFloatSqrt            0      0.00%     70.96% # attempts to use FU when none available
system.switch_cpus0.iq.fu_full::MemRead         18490     14.97%     85.93% # attempts to use FU when none available
system.switch_cpus0.iq.fu_full::MemWrite        17372     14.07%    100.00% # attempts to use FU when none available
system.switch_cpus0.iq.fu_full::IprAccess            0      0.00%    100.00% # attempts to use FU when none available
system.switch_cpus0.iq.fu_full::InstPrefetch            0      0.00%    100.00% # attempts to use FU when none available
system.switch_cpus0.iq.FU_type_0::No_OpClass            0      0.00%      0.00% # Type of FU issued
system.switch_cpus0.iq.FU_type_0::IntAlu     12463934     83.36%     83.36% # Type of FU issued
system.switch_cpus0.iq.FU_type_0::IntMult       212671      1.42%     84.78% # Type of FU issued
system.switch_cpus0.iq.FU_type_0::IntDiv            0      0.00%     84.78% # Type of FU issued
system.switch_cpus0.iq.FU_type_0::FloatAdd            0      0.00%     84.78% # Type of FU issued
system.switch_cpus0.iq.FU_type_0::FloatCmp            0      0.00%     84.78% # Type of FU issued
system.switch_cpus0.iq.FU_type_0::FloatCvt            0      0.00%     84.78% # Type of FU issued
system.switch_cpus0.iq.FU_type_0::FloatMult            0      0.00%     84.78% # Type of FU issued
system.switch_cpus0.iq.FU_type_0::FloatDiv            0      0.00%     84.78% # Type of FU issued
system.switch_cpus0.iq.FU_type_0::FloatSqrt            0      0.00%     84.78% # Type of FU issued
system.switch_cpus0.iq.FU_type_0::SimdAdd            0      0.00%     84.78% # Type of FU issued
system.switch_cpus0.iq.FU_type_0::SimdAddAcc            0      0.00%     84.78% # Type of FU issued
system.switch_cpus0.iq.FU_type_0::SimdAlu            0      0.00%     84.78% # Type of FU issued
system.switch_cpus0.iq.FU_type_0::SimdCmp            0      0.00%     84.78% # Type of FU issued
system.switch_cpus0.iq.FU_type_0::SimdCvt            0      0.00%     84.78% # Type of FU issued
system.switch_cpus0.iq.FU_type_0::SimdMisc            0      0.00%     84.78% # Type of FU issued
system.switch_cpus0.iq.FU_type_0::SimdMult            0      0.00%     84.78% # Type of FU issued
system.switch_cpus0.iq.FU_type_0::SimdMultAcc            0      0.00%     84.78% # Type of FU issued
system.switch_cpus0.iq.FU_type_0::SimdShift            0      0.00%     84.78% # Type of FU issued
system.switch_cpus0.iq.FU_type_0::SimdShiftAcc            0      0.00%     84.78% # Type of FU issued
system.switch_cpus0.iq.FU_type_0::SimdSqrt            0      0.00%     84.78% # Type of FU issued
system.switch_cpus0.iq.FU_type_0::SimdFloatAdd            0      0.00%     84.78% # Type of FU issued
system.switch_cpus0.iq.FU_type_0::SimdFloatAlu            0      0.00%     84.78% # Type of FU issued
system.switch_cpus0.iq.FU_type_0::SimdFloatCmp            0      0.00%     84.78% # Type of FU issued
system.switch_cpus0.iq.FU_type_0::SimdFloatCvt            0      0.00%     84.78% # Type of FU issued
system.switch_cpus0.iq.FU_type_0::SimdFloatDiv            0      0.00%     84.78% # Type of FU issued
system.switch_cpus0.iq.FU_type_0::SimdFloatMisc         1653      0.01%     84.80% # Type of FU issued
system.switch_cpus0.iq.FU_type_0::SimdFloatMult            0      0.00%     84.80% # Type of FU issued
system.switch_cpus0.iq.FU_type_0::SimdFloatMultAcc            0      0.00%     84.80% # Type of FU issued
system.switch_cpus0.iq.FU_type_0::SimdFloatSqrt            0      0.00%     84.80% # Type of FU issued
system.switch_cpus0.iq.FU_type_0::MemRead      1482275      9.91%     94.71% # Type of FU issued
system.switch_cpus0.iq.FU_type_0::MemWrite       790953      5.29%    100.00% # Type of FU issued
system.switch_cpus0.iq.FU_type_0::IprAccess            0      0.00%    100.00% # Type of FU issued
system.switch_cpus0.iq.FU_type_0::InstPrefetch            0      0.00%    100.00% # Type of FU issued
system.switch_cpus0.iq.FU_type_0::total      14951486                       # Type of FU issued
system.switch_cpus0.iq.rate                  1.733899                       # Inst issue rate
system.switch_cpus0.iq.fu_busy_cnt             123490                       # FU busy when requested
system.switch_cpus0.iq.fu_busy_rate          0.008259                       # FU busy rate (busy events/executed inst)
system.switch_cpus0.iq.int_inst_queue_reads     38554878                       # Number of integer instruction queue reads
system.switch_cpus0.iq.int_inst_queue_writes     25420141                       # Number of integer instruction queue writes
system.switch_cpus0.iq.int_inst_queue_wakeup_accesses     14571514                       # Number of integer instruction queue wakeup accesses
system.switch_cpus0.iq.fp_inst_queue_reads            0                       # Number of floating instruction queue reads
system.switch_cpus0.iq.fp_inst_queue_writes            0                       # Number of floating instruction queue writes
system.switch_cpus0.iq.fp_inst_queue_wakeup_accesses            0                       # Number of floating instruction queue wakeup accesses
system.switch_cpus0.iq.int_alu_accesses      15074976                       # Number of integer alu accesses
system.switch_cpus0.iq.fp_alu_accesses              0                       # Number of floating point alu accesses
system.switch_cpus0.iew.lsq.thread0.forwLoads        56775                       # Number of loads that had data forwarded from stores
system.switch_cpus0.iew.lsq.thread0.invAddrLoads            0                       # Number of loads ignored due to an invalid address
system.switch_cpus0.iew.lsq.thread0.squashedLoads       742186                       # Number of loads squashed
system.switch_cpus0.iew.lsq.thread0.ignoredResponses          298                       # Number of memory responses ignored because the instruction is squashed
system.switch_cpus0.iew.lsq.thread0.memOrderViolation           71                       # Number of memory ordering violations
system.switch_cpus0.iew.lsq.thread0.squashedStores       244037                       # Number of stores squashed
system.switch_cpus0.iew.lsq.thread0.invAddrSwpfs            0                       # Number of software prefetches ignored due to an invalid address
system.switch_cpus0.iew.lsq.thread0.blockedLoads            0                       # Number of blocked loads due to partial load-store forwarding
system.switch_cpus0.iew.lsq.thread0.rescheduledLoads            0                       # Number of loads that were rescheduled
system.switch_cpus0.iew.lsq.thread0.cacheBlocked            0                       # Number of times an access to memory failed due to the cache being blocked
system.switch_cpus0.iew.iewIdleCycles               0                       # Number of cycles IEW is idle
system.switch_cpus0.iew.iewSquashCycles        925360                       # Number of cycles IEW is squashing
system.switch_cpus0.iew.iewBlockCycles          58489                       # Number of cycles IEW is blocking
system.switch_cpus0.iew.iewUnblockCycles         8266                       # Number of cycles IEW is unblocking
system.switch_cpus0.iew.iewDispatchedInsts     18866523                       # Number of instructions dispatched to IQ
system.switch_cpus0.iew.iewDispSquashedInsts        41279                       # Number of squashed instructions skipped by dispatch
system.switch_cpus0.iew.iewDispLoadInsts      1865544                       # Number of dispatched load instructions
system.switch_cpus0.iew.iewDispStoreInsts       946652                       # Number of dispatched store instructions
system.switch_cpus0.iew.iewDispNonSpecInsts         2302                       # Number of dispatched non-speculative instructions
system.switch_cpus0.iew.iewIQFullEvents          7355                       # Number of times the IQ has become full, causing a stall
system.switch_cpus0.iew.iewLSQFullEvents            0                       # Number of times the LSQ has become full, causing a stall
system.switch_cpus0.iew.memOrderViolationEvents           71                       # Number of memory order violations
system.switch_cpus0.iew.predictedTakenIncorrect       125665                       # Number of branches that were predicted taken incorrectly
system.switch_cpus0.iew.predictedNotTakenIncorrect       123113                       # Number of branches that were predicted not taken incorrectly
system.switch_cpus0.iew.branchMispredicts       248778                       # Number of branch mispredicts detected at execute
system.switch_cpus0.iew.iewExecutedInsts     14715128                       # Number of executed instructions
system.switch_cpus0.iew.iewExecLoadInsts      1391908                       # Number of load instructions executed
system.switch_cpus0.iew.iewExecSquashedInsts       236354                       # Number of squashed instructions skipped in execute
system.switch_cpus0.iew.exec_swp                    0                       # number of swp insts executed
system.switch_cpus0.iew.exec_nop                    0                       # number of nop insts executed
system.switch_cpus0.iew.exec_refs             2163720                       # number of memory reference insts executed
system.switch_cpus0.iew.exec_branches         2077549                       # Number of branches executed
system.switch_cpus0.iew.exec_stores            771812                       # Number of stores executed
system.switch_cpus0.iew.exec_rate            1.706489                       # Inst execution rate
system.switch_cpus0.iew.wb_sent              14581259                       # cumulative count of insts sent to commit
system.switch_cpus0.iew.wb_count             14571514                       # cumulative count of insts written-back
system.switch_cpus0.iew.wb_producers          9492702                       # num instructions producing a value
system.switch_cpus0.iew.wb_consumers         26799804                       # num instructions consuming a value
system.switch_cpus0.iew.wb_penalized                0                       # number of instrctions required to write to 'other' IQ
system.switch_cpus0.iew.wb_rate              1.689835                       # insts written-back per cycle
system.switch_cpus0.iew.wb_fanout            0.354208                       # average fanout of values written-back
system.switch_cpus0.iew.wb_penalized_rate            0                       # fraction of instructions written-back that wrote to 'other' IQ
system.switch_cpus0.commit.commitCommittedInsts     10000000                       # The number of committed instructions
system.switch_cpus0.commit.commitCommittedOps     12280740                       # The number of committed instructions
system.switch_cpus0.commit.commitSquashedInsts      6585853                       # The number of squashed insts skipped by commit
system.switch_cpus0.commit.commitNonSpecStalls         3304                       # The number of times commit has been forced to stall to communicate backwards
system.switch_cpus0.commit.branchMispredicts       214615                       # The number of times a branch was mispredicted
system.switch_cpus0.commit.committed_per_cycle::samples      7573765                       # Number of insts commited each cycle
system.switch_cpus0.commit.committed_per_cycle::mean     1.621484                       # Number of insts commited each cycle
system.switch_cpus0.commit.committed_per_cycle::stdev     2.135683                       # Number of insts commited each cycle
system.switch_cpus0.commit.committed_per_cycle::underflows            0      0.00%      0.00% # Number of insts commited each cycle
system.switch_cpus0.commit.committed_per_cycle::0      2949654     38.95%     38.95% # Number of insts commited each cycle
system.switch_cpus0.commit.committed_per_cycle::1      2095980     27.67%     66.62% # Number of insts commited each cycle
system.switch_cpus0.commit.committed_per_cycle::2       849138     11.21%     77.83% # Number of insts commited each cycle
system.switch_cpus0.commit.committed_per_cycle::3       480203      6.34%     84.17% # Number of insts commited each cycle
system.switch_cpus0.commit.committed_per_cycle::4       394517      5.21%     89.38% # Number of insts commited each cycle
system.switch_cpus0.commit.committed_per_cycle::5       160873      2.12%     91.50% # Number of insts commited each cycle
system.switch_cpus0.commit.committed_per_cycle::6       194172      2.56%     94.07% # Number of insts commited each cycle
system.switch_cpus0.commit.committed_per_cycle::7        95414      1.26%     95.33% # Number of insts commited each cycle
system.switch_cpus0.commit.committed_per_cycle::8       353814      4.67%    100.00% # Number of insts commited each cycle
system.switch_cpus0.commit.committed_per_cycle::overflows            0      0.00%    100.00% # Number of insts commited each cycle
system.switch_cpus0.commit.committed_per_cycle::min_value            0                       # Number of insts commited each cycle
system.switch_cpus0.commit.committed_per_cycle::max_value            8                       # Number of insts commited each cycle
system.switch_cpus0.commit.committed_per_cycle::total      7573765                       # Number of insts commited each cycle
system.switch_cpus0.commit.committedInsts     10000000                       # Number of instructions committed
system.switch_cpus0.commit.committedOps      12280740                       # Number of ops (including micro ops) committed
system.switch_cpus0.commit.swp_count                0                       # Number of s/w prefetches committed
system.switch_cpus0.commit.refs               1825970                       # Number of memory references committed
system.switch_cpus0.commit.loads              1123355                       # Number of loads committed
system.switch_cpus0.commit.membars               1652                       # Number of memory barriers committed
system.switch_cpus0.commit.branches           1764545                       # Number of branches committed
system.switch_cpus0.commit.fp_insts                 0                       # Number of committed floating point instructions.
system.switch_cpus0.commit.int_insts         11065293                       # Number of committed integer instructions.
system.switch_cpus0.commit.function_calls       250005                       # Number of function calls committed.
system.switch_cpus0.commit.bw_lim_events       353814                       # number cycles where commit BW limit reached
system.switch_cpus0.commit.bw_limited               0                       # number of insts not committed due to BW limits
system.switch_cpus0.rob.rob_reads            26086544                       # The number of ROB reads
system.switch_cpus0.rob.rob_writes           38659178                       # The number of ROB writes
system.switch_cpus0.timesIdled                   4268                       # Number of times that the entire CPU went into an idle state and unscheduled itself
system.switch_cpus0.idleCycles                 123916                       # Total number of cycles that the CPU has spent unscheduled due to idling
system.switch_cpus0.committedInsts           10000000                       # Number of Instructions Simulated
system.switch_cpus0.committedOps             12280740                       # Number of Ops (including micro ops) Simulated
system.switch_cpus0.committedInsts_total     10000000                       # Number of Instructions Simulated
system.switch_cpus0.cpi                      0.862304                       # CPI: Cycles Per Instruction
system.switch_cpus0.cpi_total                0.862304                       # CPI: Total CPI of All Threads
system.switch_cpus0.ipc                      1.159684                       # IPC: Instructions Per Cycle
system.switch_cpus0.ipc_total                1.159684                       # IPC: Total IPC of All Threads
system.switch_cpus0.int_regfile_reads        66183867                       # number of integer regfile reads
system.switch_cpus0.int_regfile_writes       20142052                       # number of integer regfile writes
system.switch_cpus0.misc_regfile_reads       19091962                       # number of misc regfile reads
system.switch_cpus0.misc_regfile_writes          3304                       # number of misc regfile writes
system.switch_cpus1.dtb.inst_hits                   0                       # ITB inst hits
system.switch_cpus1.dtb.inst_misses                 0                       # ITB inst misses
system.switch_cpus1.dtb.read_hits                   0                       # DTB read hits
system.switch_cpus1.dtb.read_misses                 0                       # DTB read misses
system.switch_cpus1.dtb.write_hits                  0                       # DTB write hits
system.switch_cpus1.dtb.write_misses                0                       # DTB write misses
system.switch_cpus1.dtb.flush_tlb                   0                       # Number of times complete TLB was flushed
system.switch_cpus1.dtb.flush_tlb_mva               0                       # Number of times TLB was flushed by MVA
system.switch_cpus1.dtb.flush_tlb_mva_asid            0                       # Number of times TLB was flushed by MVA & ASID
system.switch_cpus1.dtb.flush_tlb_asid              0                       # Number of times TLB was flushed by ASID
system.switch_cpus1.dtb.flush_entries               0                       # Number of entries that have been flushed from TLB
system.switch_cpus1.dtb.align_faults                0                       # Number of TLB faults due to alignment restrictions
system.switch_cpus1.dtb.prefetch_faults             0                       # Number of TLB faults due to prefetch
system.switch_cpus1.dtb.domain_faults               0                       # Number of TLB faults due to domain restrictions
system.switch_cpus1.dtb.perms_faults                0                       # Number of TLB faults due to permissions restrictions
system.switch_cpus1.dtb.read_accesses               0                       # DTB read accesses
system.switch_cpus1.dtb.write_accesses              0                       # DTB write accesses
system.switch_cpus1.dtb.inst_accesses               0                       # ITB inst accesses
system.switch_cpus1.dtb.hits                        0                       # DTB hits
system.switch_cpus1.dtb.misses                      0                       # DTB misses
system.switch_cpus1.dtb.accesses                    0                       # DTB accesses
system.switch_cpus1.itb.inst_hits                   0                       # ITB inst hits
system.switch_cpus1.itb.inst_misses                 0                       # ITB inst misses
system.switch_cpus1.itb.read_hits                   0                       # DTB read hits
system.switch_cpus1.itb.read_misses                 0                       # DTB read misses
system.switch_cpus1.itb.write_hits                  0                       # DTB write hits
system.switch_cpus1.itb.write_misses                0                       # DTB write misses
system.switch_cpus1.itb.flush_tlb                   0                       # Number of times complete TLB was flushed
system.switch_cpus1.itb.flush_tlb_mva               0                       # Number of times TLB was flushed by MVA
system.switch_cpus1.itb.flush_tlb_mva_asid            0                       # Number of times TLB was flushed by MVA & ASID
system.switch_cpus1.itb.flush_tlb_asid              0                       # Number of times TLB was flushed by ASID
system.switch_cpus1.itb.flush_entries               0                       # Number of entries that have been flushed from TLB
system.switch_cpus1.itb.align_faults                0                       # Number of TLB faults due to alignment restrictions
system.switch_cpus1.itb.prefetch_faults             0                       # Number of TLB faults due to prefetch
system.switch_cpus1.itb.domain_faults               0                       # Number of TLB faults due to domain restrictions
system.switch_cpus1.itb.perms_faults                0                       # Number of TLB faults due to permissions restrictions
system.switch_cpus1.itb.read_accesses               0                       # DTB read accesses
system.switch_cpus1.itb.write_accesses              0                       # DTB write accesses
system.switch_cpus1.itb.inst_accesses               0                       # ITB inst accesses
system.switch_cpus1.itb.hits                        0                       # DTB hits
system.switch_cpus1.itb.misses                      0                       # DTB misses
system.switch_cpus1.itb.accesses                    0                       # DTB accesses
system.cpu1.workload.num_syscalls                   0                       # Number of system calls
system.switch_cpus1.numCycles                 8623041                       # number of cpu cycles simulated
system.switch_cpus1.numWorkItemsStarted             0                       # number of work items this cpu started
system.switch_cpus1.numWorkItemsCompleted            0                       # number of work items this cpu completed
system.switch_cpus1.BPredUnit.lookups         3190941                       # Number of BP lookups
system.switch_cpus1.BPredUnit.condPredicted      2601881                       # Number of conditional branches predicted
system.switch_cpus1.BPredUnit.condIncorrect       213898                       # Number of conditional branches incorrect
system.switch_cpus1.BPredUnit.BTBLookups      1355278                       # Number of BTB lookups
system.switch_cpus1.BPredUnit.BTBHits         1243886                       # Number of BTB hits
system.switch_cpus1.BPredUnit.BTBCorrect            0                       # Number of correct BTB predictions (this stat may not work properly.
system.switch_cpus1.BPredUnit.usedRAS          343162                       # Number of times the RAS was used to get a target.
system.switch_cpus1.BPredUnit.RASInCorrect         9585                       # Number of incorrect RAS predictions.
system.switch_cpus1.fetch.icacheStallCycles      3190591                       # Number of cycles fetch is stalled on an Icache miss
system.switch_cpus1.fetch.Insts              17528396                       # Number of instructions fetch has processed
system.switch_cpus1.fetch.Branches            3190941                       # Number of branches that fetch encountered
system.switch_cpus1.fetch.predictedBranches      1587048                       # Number of branches that fetch has predicted taken
system.switch_cpus1.fetch.Cycles              3891242                       # Number of cycles fetch has run and was not squashing or blocked
system.switch_cpus1.fetch.SquashCycles        1135260                       # Number of cycles fetch has spent squashing
system.switch_cpus1.fetch.BlockedCycles        532076                       # Number of cycles fetch has spent blocked
system.switch_cpus1.fetch.CacheLines          1574411                       # Number of cache lines fetched
system.switch_cpus1.fetch.IcacheSquashes       103204                       # Number of outstanding Icache misses that were squashed
system.switch_cpus1.fetch.rateDist::samples      8532646                       # Number of instructions fetched each cycle (Total)
system.switch_cpus1.fetch.rateDist::mean     2.546113                       # Number of instructions fetched each cycle (Total)
system.switch_cpus1.fetch.rateDist::stdev     3.296242                       # Number of instructions fetched each cycle (Total)
system.switch_cpus1.fetch.rateDist::underflows            0      0.00%      0.00% # Number of instructions fetched each cycle (Total)
system.switch_cpus1.fetch.rateDist::0         4641404     54.40%     54.40% # Number of instructions fetched each cycle (Total)
system.switch_cpus1.fetch.rateDist::1          258077      3.02%     57.42% # Number of instructions fetched each cycle (Total)
system.switch_cpus1.fetch.rateDist::2          479460      5.62%     63.04% # Number of instructions fetched each cycle (Total)
system.switch_cpus1.fetch.rateDist::3          478338      5.61%     68.65% # Number of instructions fetched each cycle (Total)
system.switch_cpus1.fetch.rateDist::4          296259      3.47%     72.12% # Number of instructions fetched each cycle (Total)
system.switch_cpus1.fetch.rateDist::5          235684      2.76%     74.88% # Number of instructions fetched each cycle (Total)
system.switch_cpus1.fetch.rateDist::6          148919      1.75%     76.63% # Number of instructions fetched each cycle (Total)
system.switch_cpus1.fetch.rateDist::7          139940      1.64%     78.27% # Number of instructions fetched each cycle (Total)
system.switch_cpus1.fetch.rateDist::8         1854565     21.73%    100.00% # Number of instructions fetched each cycle (Total)
system.switch_cpus1.fetch.rateDist::overflows            0      0.00%    100.00% # Number of instructions fetched each cycle (Total)
system.switch_cpus1.fetch.rateDist::min_value            0                       # Number of instructions fetched each cycle (Total)
system.switch_cpus1.fetch.rateDist::max_value            8                       # Number of instructions fetched each cycle (Total)
system.switch_cpus1.fetch.rateDist::total      8532646                       # Number of instructions fetched each cycle (Total)
system.switch_cpus1.fetch.branchRate         0.370048                       # Number of branch fetches per cycle
system.switch_cpus1.fetch.rate               2.032739                       # Number of inst fetches per cycle
system.switch_cpus1.decode.IdleCycles         3327740                       # Number of cycles decode is idle
system.switch_cpus1.decode.BlockedCycles       526360                       # Number of cycles decode is blocked
system.switch_cpus1.decode.RunCycles          3737040                       # Number of cycles decode is running
system.switch_cpus1.decode.UnblockCycles        22990                       # Number of cycles decode is unblocking
system.switch_cpus1.decode.SquashCycles        918512                       # Number of cycles decode is squashing
system.switch_cpus1.decode.BranchResolved       539290                       # Number of times decode resolved a branch
system.switch_cpus1.decode.BranchMispred          244                       # Number of times decode detected a branch misprediction
system.switch_cpus1.decode.DecodedInsts      21024759                       # Number of instructions handled by decode
system.switch_cpus1.decode.SquashedInsts         1311                       # Number of squashed instructions handled by decode
system.switch_cpus1.rename.SquashCycles        918512                       # Number of cycles rename is squashing
system.switch_cpus1.rename.IdleCycles         3570266                       # Number of cycles rename is idle
system.switch_cpus1.rename.BlockCycles         101100                       # Number of cycles rename is blocking
system.switch_cpus1.rename.serializeStallCycles        93940                       # count of cycles rename stalled for serializing inst
system.switch_cpus1.rename.RunCycles          3512904                       # Number of cycles rename is running
system.switch_cpus1.rename.UnblockCycles       335920                       # Number of cycles rename is unblocking
system.switch_cpus1.rename.RenamedInsts      20269546                       # Number of instructions processed by rename
system.switch_cpus1.rename.IQFullEvents        139575                       # Number of times rename has blocked due to IQ full
system.switch_cpus1.rename.LSQFullEvents       102852                       # Number of times rename has blocked due to LSQ full
system.switch_cpus1.rename.RenamedOperands     28467674                       # Number of destination operands rename has renamed
system.switch_cpus1.rename.RenameLookups     94557350                       # Number of register rename lookups that rename has made
system.switch_cpus1.rename.int_rename_lookups     94557350                       # Number of integer rename lookups
system.switch_cpus1.rename.CommittedMaps     17571141                       # Number of HB maps that are committed
system.switch_cpus1.rename.UndoneMaps        10896483                       # Number of HB maps that are undone due to squashing
system.switch_cpus1.rename.serializingInsts         3574                       # count of serializing insts renamed
system.switch_cpus1.rename.tempSerializingInsts         1732                       # count of temporary serializing insts renamed
system.switch_cpus1.rename.skidInsts           938006                       # count of insts added to the skid buffer
system.switch_cpus1.memDep0.insertedLoads      1875460                       # Number of loads inserted to the mem dependence unit.
system.switch_cpus1.memDep0.insertedStores       955680                       # Number of stores inserted to the mem dependence unit.
system.switch_cpus1.memDep0.conflictingLoads        12405                       # Number of conflicting loads.
system.switch_cpus1.memDep0.conflictingStores       375667                       # Number of conflicting stores.
system.switch_cpus1.iq.iqInstsAdded          19102891                       # Number of instructions added to the IQ (excludes non-spec)
system.switch_cpus1.iq.iqNonSpecInstsAdded         3464                       # Number of non-speculative instructions added to the IQ
system.switch_cpus1.iq.iqInstsIssued         15207499                       # Number of instructions issued
system.switch_cpus1.iq.iqSquashedInstsIssued        30504                       # Number of squashed instructions issued
system.switch_cpus1.iq.iqSquashedInstsExamined      6476706                       # Number of squashed instructions iterated over during squash; mainly for profiling
system.switch_cpus1.iq.iqSquashedOperandsExamined     19808093                       # Number of squashed operands that are examined and possibly removed from graph
system.switch_cpus1.iq.issued_per_cycle::samples      8532646                       # Number of insts issued each cycle
system.switch_cpus1.iq.issued_per_cycle::mean     1.782272                       # Number of insts issued each cycle
system.switch_cpus1.iq.issued_per_cycle::stdev     1.894622                       # Number of insts issued each cycle
system.switch_cpus1.iq.issued_per_cycle::underflows            0      0.00%      0.00% # Number of insts issued each cycle
system.switch_cpus1.iq.issued_per_cycle::0      2914527     34.16%     34.16% # Number of insts issued each cycle
system.switch_cpus1.iq.issued_per_cycle::1      1844757     21.62%     55.78% # Number of insts issued each cycle
system.switch_cpus1.iq.issued_per_cycle::2      1250683     14.66%     70.43% # Number of insts issued each cycle
system.switch_cpus1.iq.issued_per_cycle::3       801610      9.39%     79.83% # Number of insts issued each cycle
system.switch_cpus1.iq.issued_per_cycle::4       841936      9.87%     89.70% # Number of insts issued each cycle
system.switch_cpus1.iq.issued_per_cycle::5       409467      4.80%     94.50% # Number of insts issued each cycle
system.switch_cpus1.iq.issued_per_cycle::6       321149      3.76%     98.26% # Number of insts issued each cycle
system.switch_cpus1.iq.issued_per_cycle::7        73563      0.86%     99.12% # Number of insts issued each cycle
system.switch_cpus1.iq.issued_per_cycle::8        74954      0.88%    100.00% # Number of insts issued each cycle
system.switch_cpus1.iq.issued_per_cycle::overflows            0      0.00%    100.00% # Number of insts issued each cycle
system.switch_cpus1.iq.issued_per_cycle::min_value            0                       # Number of insts issued each cycle
system.switch_cpus1.iq.issued_per_cycle::max_value            8                       # Number of insts issued each cycle
system.switch_cpus1.iq.issued_per_cycle::total      8532646                       # Number of insts issued each cycle
system.switch_cpus1.iq.fu_full::No_OpClass            0      0.00%      0.00% # attempts to use FU when none available
system.switch_cpus1.iq.fu_full::IntAlu          94649     72.68%     72.68% # attempts to use FU when none available
system.switch_cpus1.iq.fu_full::IntMult             0      0.00%     72.68% # attempts to use FU when none available
system.switch_cpus1.iq.fu_full::IntDiv              0      0.00%     72.68% # attempts to use FU when none available
system.switch_cpus1.iq.fu_full::FloatAdd            0      0.00%     72.68% # attempts to use FU when none available
system.switch_cpus1.iq.fu_full::FloatCmp            0      0.00%     72.68% # attempts to use FU when none available
system.switch_cpus1.iq.fu_full::FloatCvt            0      0.00%     72.68% # attempts to use FU when none available
system.switch_cpus1.iq.fu_full::FloatMult            0      0.00%     72.68% # attempts to use FU when none available
system.switch_cpus1.iq.fu_full::FloatDiv            0      0.00%     72.68% # attempts to use FU when none available
system.switch_cpus1.iq.fu_full::FloatSqrt            0      0.00%     72.68% # attempts to use FU when none available
system.switch_cpus1.iq.fu_full::SimdAdd             0      0.00%     72.68% # attempts to use FU when none available
system.switch_cpus1.iq.fu_full::SimdAddAcc            0      0.00%     72.68% # attempts to use FU when none available
system.switch_cpus1.iq.fu_full::SimdAlu             0      0.00%     72.68% # attempts to use FU when none available
system.switch_cpus1.iq.fu_full::SimdCmp             0      0.00%     72.68% # attempts to use FU when none available
system.switch_cpus1.iq.fu_full::SimdCvt             0      0.00%     72.68% # attempts to use FU when none available
system.switch_cpus1.iq.fu_full::SimdMisc            0      0.00%     72.68% # attempts to use FU when none available
system.switch_cpus1.iq.fu_full::SimdMult            0      0.00%     72.68% # attempts to use FU when none available
system.switch_cpus1.iq.fu_full::SimdMultAcc            0      0.00%     72.68% # attempts to use FU when none available
system.switch_cpus1.iq.fu_full::SimdShift            0      0.00%     72.68% # attempts to use FU when none available
system.switch_cpus1.iq.fu_full::SimdShiftAcc            0      0.00%     72.68% # attempts to use FU when none available
system.switch_cpus1.iq.fu_full::SimdSqrt            0      0.00%     72.68% # attempts to use FU when none available
system.switch_cpus1.iq.fu_full::SimdFloatAdd            0      0.00%     72.68% # attempts to use FU when none available
system.switch_cpus1.iq.fu_full::SimdFloatAlu            0      0.00%     72.68% # attempts to use FU when none available
system.switch_cpus1.iq.fu_full::SimdFloatCmp            0      0.00%     72.68% # attempts to use FU when none available
system.switch_cpus1.iq.fu_full::SimdFloatCvt            0      0.00%     72.68% # attempts to use FU when none available
system.switch_cpus1.iq.fu_full::SimdFloatDiv            0      0.00%     72.68% # attempts to use FU when none available
system.switch_cpus1.iq.fu_full::SimdFloatMisc            0      0.00%     72.68% # attempts to use FU when none available
system.switch_cpus1.iq.fu_full::SimdFloatMult            0      0.00%     72.68% # attempts to use FU when none available
system.switch_cpus1.iq.fu_full::SimdFloatMultAcc            0      0.00%     72.68% # attempts to use FU when none available
system.switch_cpus1.iq.fu_full::SimdFloatSqrt            0      0.00%     72.68% # attempts to use FU when none available
system.switch_cpus1.iq.fu_full::MemRead         17983     13.81%     86.49% # attempts to use FU when none available
system.switch_cpus1.iq.fu_full::MemWrite        17591     13.51%    100.00% # attempts to use FU when none available
system.switch_cpus1.iq.fu_full::IprAccess            0      0.00%    100.00% # attempts to use FU when none available
system.switch_cpus1.iq.fu_full::InstPrefetch            0      0.00%    100.00% # attempts to use FU when none available
system.switch_cpus1.iq.FU_type_0::No_OpClass            0      0.00%      0.00% # Type of FU issued
system.switch_cpus1.iq.FU_type_0::IntAlu     12721218     83.65%     83.65% # Type of FU issued
system.switch_cpus1.iq.FU_type_0::IntMult       204075      1.34%     84.99% # Type of FU issued
system.switch_cpus1.iq.FU_type_0::IntDiv            0      0.00%     84.99% # Type of FU issued
system.switch_cpus1.iq.FU_type_0::FloatAdd            0      0.00%     84.99% # Type of FU issued
system.switch_cpus1.iq.FU_type_0::FloatCmp            0      0.00%     84.99% # Type of FU issued
system.switch_cpus1.iq.FU_type_0::FloatCvt            0      0.00%     84.99% # Type of FU issued
system.switch_cpus1.iq.FU_type_0::FloatMult            0      0.00%     84.99% # Type of FU issued
system.switch_cpus1.iq.FU_type_0::FloatDiv            0      0.00%     84.99% # Type of FU issued
system.switch_cpus1.iq.FU_type_0::FloatSqrt            0      0.00%     84.99% # Type of FU issued
system.switch_cpus1.iq.FU_type_0::SimdAdd            0      0.00%     84.99% # Type of FU issued
system.switch_cpus1.iq.FU_type_0::SimdAddAcc            0      0.00%     84.99% # Type of FU issued
system.switch_cpus1.iq.FU_type_0::SimdAlu            0      0.00%     84.99% # Type of FU issued
system.switch_cpus1.iq.FU_type_0::SimdCmp            0      0.00%     84.99% # Type of FU issued
system.switch_cpus1.iq.FU_type_0::SimdCvt            0      0.00%     84.99% # Type of FU issued
system.switch_cpus1.iq.FU_type_0::SimdMisc            0      0.00%     84.99% # Type of FU issued
system.switch_cpus1.iq.FU_type_0::SimdMult            0      0.00%     84.99% # Type of FU issued
system.switch_cpus1.iq.FU_type_0::SimdMultAcc            0      0.00%     84.99% # Type of FU issued
system.switch_cpus1.iq.FU_type_0::SimdShift            0      0.00%     84.99% # Type of FU issued
system.switch_cpus1.iq.FU_type_0::SimdShiftAcc            0      0.00%     84.99% # Type of FU issued
system.switch_cpus1.iq.FU_type_0::SimdSqrt            0      0.00%     84.99% # Type of FU issued
system.switch_cpus1.iq.FU_type_0::SimdFloatAdd            0      0.00%     84.99% # Type of FU issued
system.switch_cpus1.iq.FU_type_0::SimdFloatAlu            0      0.00%     84.99% # Type of FU issued
system.switch_cpus1.iq.FU_type_0::SimdFloatCmp            0      0.00%     84.99% # Type of FU issued
system.switch_cpus1.iq.FU_type_0::SimdFloatCvt            0      0.00%     84.99% # Type of FU issued
system.switch_cpus1.iq.FU_type_0::SimdFloatDiv            0      0.00%     84.99% # Type of FU issued
system.switch_cpus1.iq.FU_type_0::SimdFloatMisc         1731      0.01%     85.00% # Type of FU issued
system.switch_cpus1.iq.FU_type_0::SimdFloatMult            0      0.00%     85.00% # Type of FU issued
system.switch_cpus1.iq.FU_type_0::SimdFloatMultAcc            0      0.00%     85.00% # Type of FU issued
system.switch_cpus1.iq.FU_type_0::SimdFloatSqrt            0      0.00%     85.00% # Type of FU issued
system.switch_cpus1.iq.FU_type_0::MemRead      1473273      9.69%     94.69% # Type of FU issued
system.switch_cpus1.iq.FU_type_0::MemWrite       807202      5.31%    100.00% # Type of FU issued
system.switch_cpus1.iq.FU_type_0::IprAccess            0      0.00%    100.00% # Type of FU issued
system.switch_cpus1.iq.FU_type_0::InstPrefetch            0      0.00%    100.00% # Type of FU issued
system.switch_cpus1.iq.FU_type_0::total      15207499                       # Type of FU issued
system.switch_cpus1.iq.rate                  1.763589                       # Inst issue rate
system.switch_cpus1.iq.fu_busy_cnt             130223                       # FU busy when requested
system.switch_cpus1.iq.fu_busy_rate          0.008563                       # FU busy rate (busy events/executed inst)
system.switch_cpus1.iq.int_inst_queue_reads     39108368                       # Number of integer instruction queue reads
system.switch_cpus1.iq.int_inst_queue_writes     25583099                       # Number of integer instruction queue writes
system.switch_cpus1.iq.int_inst_queue_wakeup_accesses     14857898                       # Number of integer instruction queue wakeup accesses
system.switch_cpus1.iq.fp_inst_queue_reads            0                       # Number of floating instruction queue reads
system.switch_cpus1.iq.fp_inst_queue_writes            0                       # Number of floating instruction queue writes
system.switch_cpus1.iq.fp_inst_queue_wakeup_accesses            0                       # Number of floating instruction queue wakeup accesses
system.switch_cpus1.iq.int_alu_accesses      15337722                       # Number of integer alu accesses
system.switch_cpus1.iq.fp_alu_accesses              0                       # Number of floating point alu accesses
system.switch_cpus1.iew.lsq.thread0.forwLoads        47664                       # Number of loads that had data forwarded from stores
system.switch_cpus1.iew.lsq.thread0.invAddrLoads            0                       # Number of loads ignored due to an invalid address
system.switch_cpus1.iew.lsq.thread0.squashedLoads       729666                       # Number of loads squashed
system.switch_cpus1.iew.lsq.thread0.ignoredResponses          187                       # Number of memory responses ignored because the instruction is squashed
system.switch_cpus1.iew.lsq.thread0.memOrderViolation           38                       # Number of memory ordering violations
system.switch_cpus1.iew.lsq.thread0.squashedStores       229789                       # Number of stores squashed
system.switch_cpus1.iew.lsq.thread0.invAddrSwpfs            0                       # Number of software prefetches ignored due to an invalid address
system.switch_cpus1.iew.lsq.thread0.blockedLoads            0                       # Number of blocked loads due to partial load-store forwarding
system.switch_cpus1.iew.lsq.thread0.rescheduledLoads            0                       # Number of loads that were rescheduled
system.switch_cpus1.iew.lsq.thread0.cacheBlocked            0                       # Number of times an access to memory failed due to the cache being blocked
system.switch_cpus1.iew.iewIdleCycles               0                       # Number of cycles IEW is idle
system.switch_cpus1.iew.iewSquashCycles        918512                       # Number of cycles IEW is squashing
system.switch_cpus1.iew.iewBlockCycles          52671                       # Number of cycles IEW is blocking
system.switch_cpus1.iew.iewUnblockCycles         9157                       # Number of cycles IEW is unblocking
system.switch_cpus1.iew.iewDispatchedInsts     19106355                       # Number of instructions dispatched to IQ
system.switch_cpus1.iew.iewDispSquashedInsts        37731                       # Number of squashed instructions skipped by dispatch
system.switch_cpus1.iew.iewDispLoadInsts      1875460                       # Number of dispatched load instructions
system.switch_cpus1.iew.iewDispStoreInsts       955680                       # Number of dispatched store instructions
system.switch_cpus1.iew.iewDispNonSpecInsts         1732                       # Number of dispatched non-speculative instructions
system.switch_cpus1.iew.iewIQFullEvents          7206                       # Number of times the IQ has become full, causing a stall
system.switch_cpus1.iew.iewLSQFullEvents            0                       # Number of times the LSQ has become full, causing a stall
system.switch_cpus1.iew.memOrderViolationEvents           38                       # Number of memory order violations
system.switch_cpus1.iew.predictedTakenIncorrect       133009                       # Number of branches that were predicted taken incorrectly
system.switch_cpus1.iew.predictedNotTakenIncorrect       119338                       # Number of branches that were predicted not taken incorrectly
system.switch_cpus1.iew.branchMispredicts       252347                       # Number of branch mispredicts detected at execute
system.switch_cpus1.iew.iewExecutedInsts     15005085                       # Number of executed instructions
system.switch_cpus1.iew.iewExecLoadInsts      1405611                       # Number of load instructions executed
system.switch_cpus1.iew.iewExecSquashedInsts       202411                       # Number of squashed instructions skipped in execute
system.switch_cpus1.iew.exec_swp                    0                       # number of swp insts executed
system.switch_cpus1.iew.exec_nop                    0                       # number of nop insts executed
system.switch_cpus1.iew.exec_refs             2194410                       # number of memory reference insts executed
system.switch_cpus1.iew.exec_branches         2127398                       # Number of branches executed
system.switch_cpus1.iew.exec_stores            788799                       # Number of stores executed
system.switch_cpus1.iew.exec_rate            1.740115                       # Inst execution rate
system.switch_cpus1.iew.wb_sent              14862553                       # cumulative count of insts sent to commit
system.switch_cpus1.iew.wb_count             14857898                       # cumulative count of insts written-back
system.switch_cpus1.iew.wb_producers          9468417                       # num instructions producing a value
system.switch_cpus1.iew.wb_consumers         27162584                       # num instructions consuming a value
system.switch_cpus1.iew.wb_penalized                0                       # number of instrctions required to write to 'other' IQ
system.switch_cpus1.iew.wb_rate              1.723046                       # insts written-back per cycle
system.switch_cpus1.iew.wb_fanout            0.348583                       # average fanout of values written-back
system.switch_cpus1.iew.wb_penalized_rate            0                       # fraction of instructions written-back that wrote to 'other' IQ
system.switch_cpus1.commit.commitCommittedInsts     10234222                       # The number of committed instructions
system.switch_cpus1.commit.commitCommittedOps     12601832                       # The number of committed instructions
system.switch_cpus1.commit.commitSquashedInsts      6504542                       # The number of squashed insts skipped by commit
system.switch_cpus1.commit.commitNonSpecStalls         3464                       # The number of times commit has been forced to stall to communicate backwards
system.switch_cpus1.commit.branchMispredicts       216271                       # The number of times a branch was mispredicted
system.switch_cpus1.commit.committed_per_cycle::samples      7614134                       # Number of insts commited each cycle
system.switch_cpus1.commit.committed_per_cycle::mean     1.655058                       # Number of insts commited each cycle
system.switch_cpus1.commit.committed_per_cycle::stdev     2.147118                       # Number of insts commited each cycle
system.switch_cpus1.commit.committed_per_cycle::underflows            0      0.00%      0.00% # Number of insts commited each cycle
[...]
system.cpu3.icache.ReadReq_avg_miss_latency::total 47721.533333                       # average ReadReq miss latency
system.cpu3.icache.demand_avg_miss_latency::switch_cpus3.inst 47721.533333                       # average overall miss latency
system.cpu3.icache.demand_avg_miss_latency::total 47721.533333                       # average overall miss latency
system.cpu3.icache.overall_avg_miss_latency::switch_cpus3.inst 47721.533333                       # average overall miss latency
system.cpu3.icache.overall_avg_miss_latency::total 47721.533333                       # average overall miss latency
system.cpu3.icache.blocked_cycles::no_mshrs            0                       # number of cycles access was blocked
system.cpu3.icache.blocked_cycles::no_targets            0                       # number of cycles access was blocked
system.cpu3.icache.blocked::no_mshrs                0                       # number of cycles access was blocked
system.cpu3.icache.blocked::no_targets              0                       # number of cycles access was blocked
system.cpu3.icache.avg_blocked_cycles::no_mshrs          nan                       # average number of cycles each access was blocked
system.cpu3.icache.avg_blocked_cycles::no_targets          nan                       # average number of cycles each access was blocked
system.cpu3.icache.fast_writes                      0                       # number of fast writes performed
system.cpu3.icache.cache_copies                     0                       # number of cache copies performed
system.cpu3.icache.ReadReq_mshr_hits::switch_cpus3.inst            2                       # number of ReadReq MSHR hits
system.cpu3.icache.ReadReq_mshr_hits::total            2                       # number of ReadReq MSHR hits
system.cpu3.icache.demand_mshr_hits::switch_cpus3.inst            2                       # number of demand (read+write) MSHR hits
system.cpu3.icache.demand_mshr_hits::total            2                       # number of demand (read+write) MSHR hits
system.cpu3.icache.overall_mshr_hits::switch_cpus3.inst            2                       # number of overall MSHR hits
system.cpu3.icache.overall_mshr_hits::total            2                       # number of overall MSHR hits
system.cpu3.icache.ReadReq_mshr_misses::switch_cpus3.inst           13                       # number of ReadReq MSHR misses
system.cpu3.icache.ReadReq_mshr_misses::total           13                       # number of ReadReq MSHR misses
system.cpu3.icache.demand_mshr_misses::switch_cpus3.inst           13                       # number of demand (read+write) MSHR misses
system.cpu3.icache.demand_mshr_misses::total           13                       # number of demand (read+write) MSHR misses
system.cpu3.icache.overall_mshr_misses::switch_cpus3.inst           13                       # number of overall MSHR misses
system.cpu3.icache.overall_mshr_misses::total           13                       # number of overall MSHR misses
system.cpu3.icache.ReadReq_mshr_miss_latency::switch_cpus3.inst       591305                       # number of ReadReq MSHR miss cycles
system.cpu3.icache.ReadReq_mshr_miss_latency::total       591305                       # number of ReadReq MSHR miss cycles
system.cpu3.icache.demand_mshr_miss_latency::switch_cpus3.inst       591305                       # number of demand (read+write) MSHR miss cycles
system.cpu3.icache.demand_mshr_miss_latency::total       591305                       # number of demand (read+write) MSHR miss cycles
system.cpu3.icache.overall_mshr_miss_latency::switch_cpus3.inst       591305                       # number of overall MSHR miss cycles
system.cpu3.icache.overall_mshr_miss_latency::total       591305                       # number of overall MSHR miss cycles
system.cpu3.icache.ReadReq_mshr_miss_rate::switch_cpus3.inst     0.000008                       # mshr miss rate for ReadReq accesses
system.cpu3.icache.ReadReq_mshr_miss_rate::total     0.000008                       # mshr miss rate for ReadReq accesses
system.cpu3.icache.demand_mshr_miss_rate::switch_cpus3.inst     0.000008                       # mshr miss rate for demand accesses
system.cpu3.icache.demand_mshr_miss_rate::total     0.000008                       # mshr miss rate for demand accesses
system.cpu3.icache.overall_mshr_miss_rate::switch_cpus3.inst     0.000008                       # mshr miss rate for overall accesses
system.cpu3.icache.overall_mshr_miss_rate::total     0.000008                       # mshr miss rate for overall accesses
system.cpu3.icache.ReadReq_avg_mshr_miss_latency::switch_cpus3.inst        45485                       # average ReadReq mshr miss latency
system.cpu3.icache.ReadReq_avg_mshr_miss_latency::total        45485                       # average ReadReq mshr miss latency
system.cpu3.icache.demand_avg_mshr_miss_latency::switch_cpus3.inst        45485                       # average overall mshr miss latency
system.cpu3.icache.demand_avg_mshr_miss_latency::total        45485                       # average overall mshr miss latency
system.cpu3.icache.overall_avg_mshr_miss_latency::switch_cpus3.inst        45485                       # average overall mshr miss latency
system.cpu3.icache.overall_avg_mshr_miss_latency::total        45485                       # average overall mshr miss latency
system.cpu3.icache.no_allocate_misses               0                       # Number of misses that were no-allocate
system.cpu3.dcache.replacements                  5443                       # number of replacements
system.cpu3.dcache.tagsinuse                      256                       # Cycle average of tags in use
system.cpu3.dcache.total_refs               157475328                       # Total number of references to valid blocks.
system.cpu3.dcache.sampled_refs                  5699                       # Sample count of references to valid blocks.
system.cpu3.dcache.avg_refs              27632.098263                       # Average number of references to valid blocks.
system.cpu3.dcache.warmup_cycle                     0                       # Cycle when the warmup percentage was hit.
system.cpu3.dcache.occ_blocks::switch_cpus3.data   225.978558                       # Average occupied blocks per requestor
system.cpu3.dcache.occ_blocks::cpu3.data    30.021442                       # Average occupied blocks per requestor
system.cpu3.dcache.occ_percent::switch_cpus3.data     0.882729                       # Average percentage of cache occupancy
system.cpu3.dcache.occ_percent::cpu3.data     0.117271                       # Average percentage of cache occupancy
system.cpu3.dcache.occ_percent::total               1                       # Average percentage of cache occupancy
system.cpu3.dcache.ReadReq_hits::switch_cpus3.data      1057660                       # number of ReadReq hits
system.cpu3.dcache.ReadReq_hits::total        1057660                       # number of ReadReq hits
system.cpu3.dcache.WriteReq_hits::switch_cpus3.data       727605                       # number of WriteReq hits
system.cpu3.dcache.WriteReq_hits::total        727605                       # number of WriteReq hits
system.cpu3.dcache.LoadLockedReq_hits::switch_cpus3.data         1773                       # number of LoadLockedReq hits
system.cpu3.dcache.LoadLockedReq_hits::total         1773                       # number of LoadLockedReq hits
system.cpu3.dcache.StoreCondReq_hits::switch_cpus3.data         1688                       # number of StoreCondReq hits
system.cpu3.dcache.StoreCondReq_hits::total         1688                       # number of StoreCondReq hits
system.cpu3.dcache.demand_hits::switch_cpus3.data      1785265                       # number of demand (read+write) hits
system.cpu3.dcache.demand_hits::total         1785265                       # number of demand (read+write) hits
system.cpu3.dcache.overall_hits::switch_cpus3.data      1785265                       # number of overall hits
system.cpu3.dcache.overall_hits::total        1785265                       # number of overall hits
system.cpu3.dcache.ReadReq_misses::switch_cpus3.data        13958                       # number of ReadReq misses
system.cpu3.dcache.ReadReq_misses::total        13958                       # number of ReadReq misses
system.cpu3.dcache.WriteReq_misses::switch_cpus3.data          357                       # number of WriteReq misses
system.cpu3.dcache.WriteReq_misses::total          357                       # number of WriteReq misses
system.cpu3.dcache.demand_misses::switch_cpus3.data        14315                       # number of demand (read+write) misses
system.cpu3.dcache.demand_misses::total         14315                       # number of demand (read+write) misses
system.cpu3.dcache.overall_misses::switch_cpus3.data        14315                       # number of overall misses
system.cpu3.dcache.overall_misses::total        14315                       # number of overall misses
system.cpu3.dcache.ReadReq_miss_latency::switch_cpus3.data    449592264                       # number of ReadReq miss cycles
system.cpu3.dcache.ReadReq_miss_latency::total    449592264                       # number of ReadReq miss cycles
system.cpu3.dcache.WriteReq_miss_latency::switch_cpus3.data     16650798                       # number of WriteReq miss cycles
system.cpu3.dcache.WriteReq_miss_latency::total     16650798                       # number of WriteReq miss cycles
system.cpu3.dcache.demand_miss_latency::switch_cpus3.data    466243062                       # number of demand (read+write) miss cycles
system.cpu3.dcache.demand_miss_latency::total    466243062                       # number of demand (read+write) miss cycles
system.cpu3.dcache.overall_miss_latency::switch_cpus3.data    466243062                       # number of overall miss cycles
system.cpu3.dcache.overall_miss_latency::total    466243062                       # number of overall miss cycles
system.cpu3.dcache.ReadReq_accesses::switch_cpus3.data      1071618                       # number of ReadReq accesses(hits+misses)
system.cpu3.dcache.ReadReq_accesses::total      1071618                       # number of ReadReq accesses(hits+misses)
system.cpu3.dcache.WriteReq_accesses::switch_cpus3.data       727962                       # number of WriteReq accesses(hits+misses)
system.cpu3.dcache.WriteReq_accesses::total       727962                       # number of WriteReq accesses(hits+misses)
system.cpu3.dcache.LoadLockedReq_accesses::switch_cpus3.data         1773                       # number of LoadLockedReq accesses(hits+misses)
system.cpu3.dcache.LoadLockedReq_accesses::total         1773                       # number of LoadLockedReq accesses(hits+misses)
system.cpu3.dcache.StoreCondReq_accesses::switch_cpus3.data         1688                       # number of StoreCondReq accesses(hits+misses)
system.cpu3.dcache.StoreCondReq_accesses::total         1688                       # number of StoreCondReq accesses(hits+misses)
system.cpu3.dcache.demand_accesses::switch_cpus3.data      1799580                       # number of demand (read+write) accesses
system.cpu3.dcache.demand_accesses::total      1799580                       # number of demand (read+write) accesses
system.cpu3.dcache.overall_accesses::switch_cpus3.data      1799580                       # number of overall (read+write) accesses
system.cpu3.dcache.overall_accesses::total      1799580                       # number of overall (read+write) accesses
system.cpu3.dcache.ReadReq_miss_rate::switch_cpus3.data     0.013025                       # miss rate for ReadReq accesses
system.cpu3.dcache.ReadReq_miss_rate::total     0.013025                       # miss rate for ReadReq accesses
system.cpu3.dcache.WriteReq_miss_rate::switch_cpus3.data     0.000490                       # miss rate for WriteReq accesses
system.cpu3.dcache.WriteReq_miss_rate::total     0.000490                       # miss rate for WriteReq accesses
system.cpu3.dcache.demand_miss_rate::switch_cpus3.data     0.007955                       # miss rate for demand accesses
system.cpu3.dcache.demand_miss_rate::total     0.007955                       # miss rate for demand accesses
system.cpu3.dcache.overall_miss_rate::switch_cpus3.data     0.007955                       # miss rate for overall accesses
system.cpu3.dcache.overall_miss_rate::total     0.007955                       # miss rate for overall accesses
system.cpu3.dcache.ReadReq_avg_miss_latency::switch_cpus3.data 32210.364236                       # average ReadReq miss latency
system.cpu3.dcache.ReadReq_avg_miss_latency::total 32210.364236                       # average ReadReq miss latency
system.cpu3.dcache.WriteReq_avg_miss_latency::switch_cpus3.data 46640.890756                       # average WriteReq miss latency
system.cpu3.dcache.WriteReq_avg_miss_latency::total 46640.890756                       # average WriteReq miss latency
system.cpu3.dcache.demand_avg_miss_latency::switch_cpus3.data 32570.245337                       # average overall miss latency
system.cpu3.dcache.demand_avg_miss_latency::total 32570.245337                       # average overall miss latency
system.cpu3.dcache.overall_avg_miss_latency::switch_cpus3.data 32570.245337                       # average overall miss latency
system.cpu3.dcache.overall_avg_miss_latency::total 32570.245337                       # average overall miss latency
system.cpu3.dcache.blocked_cycles::no_mshrs            0                       # number of cycles access was blocked
system.cpu3.dcache.blocked_cycles::no_targets            0                       # number of cycles access was blocked
system.cpu3.dcache.blocked::no_mshrs                0                       # number of cycles access was blocked
system.cpu3.dcache.blocked::no_targets              0                       # number of cycles access was blocked
system.cpu3.dcache.avg_blocked_cycles::no_mshrs          nan                       # average number of cycles each access was blocked
system.cpu3.dcache.avg_blocked_cycles::no_targets          nan                       # average number of cycles each access was blocked
system.cpu3.dcache.fast_writes                      0                       # number of fast writes performed
system.cpu3.dcache.cache_copies                     0                       # number of cache copies performed
system.cpu3.dcache.writebacks::writebacks         2430                       # number of writebacks
system.cpu3.dcache.writebacks::total             2430                       # number of writebacks
system.cpu3.dcache.ReadReq_mshr_hits::switch_cpus3.data         8517                       # number of ReadReq MSHR hits
system.cpu3.dcache.ReadReq_mshr_hits::total         8517                       # number of ReadReq MSHR hits
system.cpu3.dcache.WriteReq_mshr_hits::switch_cpus3.data          355                       # number of WriteReq MSHR hits
system.cpu3.dcache.WriteReq_mshr_hits::total          355                       # number of WriteReq MSHR hits
system.cpu3.dcache.demand_mshr_hits::switch_cpus3.data         8872                       # number of demand (read+write) MSHR hits
system.cpu3.dcache.demand_mshr_hits::total         8872                       # number of demand (read+write) MSHR hits
system.cpu3.dcache.overall_mshr_hits::switch_cpus3.data         8872                       # number of overall MSHR hits
system.cpu3.dcache.overall_mshr_hits::total         8872                       # number of overall MSHR hits
system.cpu3.dcache.ReadReq_mshr_misses::switch_cpus3.data         5441                       # number of ReadReq MSHR misses
system.cpu3.dcache.ReadReq_mshr_misses::total         5441                       # number of ReadReq MSHR misses
system.cpu3.dcache.WriteReq_mshr_misses::switch_cpus3.data            2                       # number of WriteReq MSHR misses
system.cpu3.dcache.WriteReq_mshr_misses::total            2                       # number of WriteReq MSHR misses
system.cpu3.dcache.demand_mshr_misses::switch_cpus3.data         5443                       # number of demand (read+write) MSHR misses
system.cpu3.dcache.demand_mshr_misses::total         5443                       # number of demand (read+write) MSHR misses
system.cpu3.dcache.overall_mshr_misses::switch_cpus3.data         5443                       # number of overall MSHR misses
system.cpu3.dcache.overall_mshr_misses::total         5443                       # number of overall MSHR misses
system.cpu3.dcache.ReadReq_mshr_miss_latency::switch_cpus3.data     86850654                       # number of ReadReq MSHR miss cycles
system.cpu3.dcache.ReadReq_mshr_miss_latency::total     86850654                       # number of ReadReq MSHR miss cycles
system.cpu3.dcache.WriteReq_mshr_miss_latency::switch_cpus3.data        86062                       # number of WriteReq MSHR miss cycles
system.cpu3.dcache.WriteReq_mshr_miss_latency::total        86062                       # number of WriteReq MSHR miss cycles
system.cpu3.dcache.demand_mshr_miss_latency::switch_cpus3.data     86936716                       # number of demand (read+write) MSHR miss cycles
system.cpu3.dcache.demand_mshr_miss_latency::total     86936716                       # number of demand (read+write) MSHR miss cycles
system.cpu3.dcache.overall_mshr_miss_latency::switch_cpus3.data     86936716                       # number of overall MSHR miss cycles
system.cpu3.dcache.overall_mshr_miss_latency::total     86936716                       # number of overall MSHR miss cycles
system.cpu3.dcache.ReadReq_mshr_miss_rate::switch_cpus3.data     0.005077                       # mshr miss rate for ReadReq accesses
system.cpu3.dcache.ReadReq_mshr_miss_rate::total     0.005077                       # mshr miss rate for ReadReq accesses
system.cpu3.dcache.WriteReq_mshr_miss_rate::switch_cpus3.data     0.000003                       # mshr miss rate for WriteReq accesses
system.cpu3.dcache.WriteReq_mshr_miss_rate::total     0.000003                       # mshr miss rate for WriteReq accesses
system.cpu3.dcache.demand_mshr_miss_rate::switch_cpus3.data     0.003025                       # mshr miss rate for demand accesses
system.cpu3.dcache.demand_mshr_miss_rate::total     0.003025                       # mshr miss rate for demand accesses
system.cpu3.dcache.overall_mshr_miss_rate::switch_cpus3.data     0.003025                       # mshr miss rate for overall accesses
system.cpu3.dcache.overall_mshr_miss_rate::total     0.003025                       # mshr miss rate for overall accesses
system.cpu3.dcache.ReadReq_avg_mshr_miss_latency::switch_cpus3.data 15962.259511                       # average ReadReq mshr miss latency
system.cpu3.dcache.ReadReq_avg_mshr_miss_latency::total 15962.259511                       # average ReadReq mshr miss latency
system.cpu3.dcache.WriteReq_avg_mshr_miss_latency::switch_cpus3.data        43031                       # average WriteReq mshr miss latency
system.cpu3.dcache.WriteReq_avg_mshr_miss_latency::total        43031                       # average WriteReq mshr miss latency
system.cpu3.dcache.demand_avg_mshr_miss_latency::switch_cpus3.data 15972.205769                       # average overall mshr miss latency
system.cpu3.dcache.demand_avg_mshr_miss_latency::total 15972.205769                       # average overall mshr miss latency
system.cpu3.dcache.overall_avg_mshr_miss_latency::switch_cpus3.data 15972.205769                       # average overall mshr miss latency
system.cpu3.dcache.overall_avg_mshr_miss_latency::total 15972.205769                       # average overall mshr miss latency
system.cpu3.dcache.no_allocate_misses               0                       # Number of misses that were no-allocate

---------- End Simulation Statistics   ----------
