
---------- Begin Simulation Statistics ----------
sim_seconds                                  0.109560                       # Number of seconds simulated
sim_ticks                                109560281496                       # Number of ticks simulated
final_tick                               636662344404                       # Number of ticks from beginning of simulation (restored from checkpoints and never reset)
sim_freq                                 1000000000000                       # Frequency of simulated ticks
host_inst_rate                                 115779                       # Simulator instruction rate (inst/s)
host_op_rate                                   145482                       # Simulator op (including micro ops) rate (op/s)
host_tick_rate                                1434887                       # Simulator tick rate (ticks/s)
host_mem_usage                               67374684                       # Number of bytes of host memory used
host_seconds                                 76354.64                       # Real time elapsed on the host
sim_insts                                  8840278234                       # Number of instructions simulated
sim_ops                                   11108195410                       # Number of ops (including micro ops) simulated
system.physmem.bytes_read::switch_cpus0.inst         4608                       # Number of bytes read from this memory
system.physmem.bytes_read::switch_cpus0.data      1806080                       # Number of bytes read from this memory
system.physmem.bytes_read::switch_cpus1.inst         4736                       # Number of bytes read from this memory
system.physmem.bytes_read::switch_cpus1.data      1774464                       # Number of bytes read from this memory
system.physmem.bytes_read::switch_cpus2.inst         4352                       # Number of bytes read from this memory
system.physmem.bytes_read::switch_cpus2.data      1881728                       # Number of bytes read from this memory
system.physmem.bytes_read::switch_cpus3.inst         5376                       # Number of bytes read from this memory
system.physmem.bytes_read::switch_cpus3.data      3634688                       # Number of bytes read from this memory
system.physmem.bytes_read::switch_cpus4.inst         4992                       # Number of bytes read from this memory
system.physmem.bytes_read::switch_cpus4.data       826624                       # Number of bytes read from this memory
system.physmem.bytes_read::switch_cpus5.inst         5376                       # Number of bytes read from this memory
system.physmem.bytes_read::switch_cpus5.data      1113600                       # Number of bytes read from this memory
system.physmem.bytes_read::switch_cpus6.inst         5120                       # Number of bytes read from this memory
system.physmem.bytes_read::switch_cpus6.data      3624960                       # Number of bytes read from this memory
system.physmem.bytes_read::switch_cpus7.inst         5248                       # Number of bytes read from this memory
system.physmem.bytes_read::switch_cpus7.data      3635968                       # Number of bytes read from this memory
system.physmem.bytes_read::total             18337920                       # Number of bytes read from this memory
system.physmem.bytes_inst_read::switch_cpus0.inst         4608                       # Number of instructions bytes read from this memory
system.physmem.bytes_inst_read::switch_cpus1.inst         4736                       # Number of instructions bytes read from this memory
system.physmem.bytes_inst_read::switch_cpus2.inst         4352                       # Number of instructions bytes read from this memory
system.physmem.bytes_inst_read::switch_cpus3.inst         5376                       # Number of instructions bytes read from this memory
system.physmem.bytes_inst_read::switch_cpus4.inst         4992                       # Number of instructions bytes read from this memory
system.physmem.bytes_inst_read::switch_cpus5.inst         5376                       # Number of instructions bytes read from this memory
system.physmem.bytes_inst_read::switch_cpus6.inst         5120                       # Number of instructions bytes read from this memory
system.physmem.bytes_inst_read::switch_cpus7.inst         5248                       # Number of instructions bytes read from this memory
system.physmem.bytes_inst_read::total           39808                       # Number of instructions bytes read from this memory
system.physmem.bytes_written::writebacks      5529984                       # Number of bytes written to this memory
system.physmem.bytes_written::total           5529984                       # Number of bytes written to this memory
system.physmem.num_reads::switch_cpus0.inst           36                       # Number of read requests responded to by this memory
system.physmem.num_reads::switch_cpus0.data        14110                       # Number of read requests responded to by this memory
system.physmem.num_reads::switch_cpus1.inst           37                       # Number of read requests responded to by this memory
system.physmem.num_reads::switch_cpus1.data        13863                       # Number of read requests responded to by this memory
system.physmem.num_reads::switch_cpus2.inst           34                       # Number of read requests responded to by this memory
system.physmem.num_reads::switch_cpus2.data        14701                       # Number of read requests responded to by this memory
system.physmem.num_reads::switch_cpus3.inst           42                       # Number of read requests responded to by this memory
system.physmem.num_reads::switch_cpus3.data        28396                       # Number of read requests responded to by this memory
system.physmem.num_reads::switch_cpus4.inst           39                       # Number of read requests responded to by this memory
system.physmem.num_reads::switch_cpus4.data         6458                       # Number of read requests responded to by this memory
system.physmem.num_reads::switch_cpus5.inst           42                       # Number of read requests responded to by this memory
system.physmem.num_reads::switch_cpus5.data         8700                       # Number of read requests responded to by this memory
system.physmem.num_reads::switch_cpus6.inst           40                       # Number of read requests responded to by this memory
system.physmem.num_reads::switch_cpus6.data        28320                       # Number of read requests responded to by this memory
system.physmem.num_reads::switch_cpus7.inst           41                       # Number of read requests responded to by this memory
system.physmem.num_reads::switch_cpus7.data        28406                       # Number of read requests responded to by this memory
system.physmem.num_reads::total                143265                       # Number of read requests responded to by this memory
system.physmem.num_writes::writebacks           43203                       # Number of write requests responded to by this memory
system.physmem.num_writes::functional               0                       # Number of write requests responded to by this memory
system.physmem.num_writes::interrupt                0                       # Number of write requests responded to by this memory
system.physmem.num_writes::switch_cpus0.dtb.walker            0                       # Number of write requests responded to by this memory
system.physmem.num_writes::switch_cpus0.itb.walker            0                       # Number of write requests responded to by this memory
system.physmem.num_writes::switch_cpus0.inst            0                       # Number of write requests responded to by this memory
system.physmem.num_writes::switch_cpus0.data            0                       # Number of write requests responded to by this memory
system.physmem.num_writes::switch_cpus1.dtb.walker            0                       # Number of write requests responded to by this memory
system.physmem.num_writes::switch_cpus1.itb.walker            0                       # Number of write requests responded to by this memory
system.physmem.num_writes::switch_cpus1.inst            0                       # Number of write requests responded to by this memory
system.physmem.num_writes::switch_cpus1.data            0                       # Number of write requests responded to by this memory
system.physmem.num_writes::switch_cpus2.dtb.walker            0                       # Number of write requests responded to by this memory
system.physmem.num_writes::switch_cpus2.itb.walker            0                       # Number of write requests responded to by this memory
system.physmem.num_writes::switch_cpus2.inst            0                       # Number of write requests responded to by this memory
system.physmem.num_writes::switch_cpus2.data            0                       # Number of write requests responded to by this memory
system.physmem.num_writes::switch_cpus3.dtb.walker            0                       # Number of write requests responded to by this memory
system.physmem.num_writes::switch_cpus3.itb.walker            0                       # Number of write requests responded to by this memory
system.physmem.num_writes::switch_cpus3.inst            0                       # Number of write requests responded to by this memory
system.physmem.num_writes::switch_cpus3.data            0                       # Number of write requests responded to by this memory
system.physmem.num_writes::switch_cpus4.dtb.walker            0                       # Number of write requests responded to by this memory
system.physmem.num_writes::switch_cpus4.itb.walker            0                       # Number of write requests responded to by this memory
system.physmem.num_writes::switch_cpus4.inst            0                       # Number of write requests responded to by this memory
system.physmem.num_writes::switch_cpus4.data            0                       # Number of write requests responded to by this memory
system.physmem.num_writes::switch_cpus5.dtb.walker            0                       # Number of write requests responded to by this memory
system.physmem.num_writes::switch_cpus5.itb.walker            0                       # Number of write requests responded to by this memory
system.physmem.num_writes::switch_cpus5.inst            0                       # Number of write requests responded to by this memory
system.physmem.num_writes::switch_cpus5.data            0                       # Number of write requests responded to by this memory
system.physmem.num_writes::switch_cpus6.dtb.walker            0                       # Number of write requests responded to by this memory
system.physmem.num_writes::switch_cpus6.itb.walker            0                       # Number of write requests responded to by this memory
system.physmem.num_writes::switch_cpus6.inst            0                       # Number of write requests responded to by this memory
system.physmem.num_writes::switch_cpus6.data            0                       # Number of write requests responded to by this memory
system.physmem.num_writes::switch_cpus7.dtb.walker            0                       # Number of write requests responded to by this memory
system.physmem.num_writes::switch_cpus7.itb.walker            0                       # Number of write requests responded to by this memory
system.physmem.num_writes::switch_cpus7.inst            0                       # Number of write requests responded to by this memory
system.physmem.num_writes::switch_cpus7.data            0                       # Number of write requests responded to by this memory
system.physmem.num_writes::cpu0.dtb.walker            0                       # Number of write requests responded to by this memory
system.physmem.num_writes::cpu0.itb.walker            0                       # Number of write requests responded to by this memory
system.physmem.num_writes::cpu0.inst                0                       # Number of write requests responded to by this memory
system.physmem.num_writes::cpu0.data                0                       # Number of write requests responded to by this memory
system.physmem.num_writes::cpu1.dtb.walker            0                       # Number of write requests responded to by this memory
system.physmem.num_writes::cpu1.itb.walker            0                       # Number of write requests responded to by this memory
system.physmem.num_writes::cpu1.inst                0                       # Number of write requests responded to by this memory
system.physmem.num_writes::cpu1.data                0                       # Number of write requests responded to by this memory
system.physmem.num_writes::cpu2.dtb.walker            0                       # Number of write requests responded to by this memory
system.physmem.num_writes::cpu2.itb.walker            0                       # Number of write requests responded to by this memory
system.physmem.num_writes::cpu2.inst                0                       # Number of write requests responded to by this memory
system.physmem.num_writes::cpu2.data                0                       # Number of write requests responded to by this memory
system.physmem.num_writes::cpu3.dtb.walker            0                       # Number of write requests responded to by this memory
system.physmem.num_writes::cpu3.itb.walker            0                       # Number of write requests responded to by this memory
system.physmem.num_writes::cpu3.inst                0                       # Number of write requests responded to by this memory
system.physmem.num_writes::cpu3.data                0                       # Number of write requests responded to by this memory
system.physmem.num_writes::cpu4.dtb.walker            0                       # Number of write requests responded to by this memory
system.physmem.num_writes::cpu4.itb.walker            0                       # Number of write requests responded to by this memory
system.physmem.num_writes::cpu4.inst                0                       # Number of write requests responded to by this memory
system.physmem.num_writes::cpu4.data                0                       # Number of write requests responded to by this memory
system.physmem.num_writes::cpu5.dtb.walker            0                       # Number of write requests responded to by this memory
system.physmem.num_writes::cpu5.itb.walker            0                       # Number of write requests responded to by this memory
system.physmem.num_writes::cpu5.inst                0                       # Number of write requests responded to by this memory
system.physmem.num_writes::cpu5.data                0                       # Number of write requests responded to by this memory
system.physmem.num_writes::cpu6.dtb.walker            0                       # Number of write requests responded to by this memory
system.physmem.num_writes::cpu6.itb.walker            0                       # Number of write requests responded to by this memory
system.physmem.num_writes::cpu6.inst                0                       # Number of write requests responded to by this memory
system.physmem.num_writes::cpu6.data                0                       # Number of write requests responded to by this memory
system.physmem.num_writes::cpu7.dtb.walker            0                       # Number of write requests responded to by this memory
system.physmem.num_writes::cpu7.itb.walker            0                       # Number of write requests responded to by this memory
system.physmem.num_writes::cpu7.inst                0                       # Number of write requests responded to by this memory
system.physmem.num_writes::cpu7.data                0                       # Number of write requests responded to by this memory
system.physmem.num_writes::total                43203                       # Number of write requests responded to by this memory
system.physmem.bw_read::switch_cpus0.inst        42059                       # Total read bandwidth from this memory (bytes/s)
system.physmem.bw_read::switch_cpus0.data     16484806                       # Total read bandwidth from this memory (bytes/s)
system.physmem.bw_read::switch_cpus1.inst        43227                       # Total read bandwidth from this memory (bytes/s)
system.physmem.bw_read::switch_cpus1.data     16196234                       # Total read bandwidth from this memory (bytes/s)
system.physmem.bw_read::switch_cpus2.inst        39722                       # Total read bandwidth from this memory (bytes/s)
system.physmem.bw_read::switch_cpus2.data     17175275                       # Total read bandwidth from this memory (bytes/s)
system.physmem.bw_read::switch_cpus3.inst        49069                       # Total read bandwidth from this memory (bytes/s)
system.physmem.bw_read::switch_cpus3.data     33175234                       # Total read bandwidth from this memory (bytes/s)
system.physmem.bw_read::switch_cpus4.inst        45564                       # Total read bandwidth from this memory (bytes/s)
system.physmem.bw_read::switch_cpus4.data      7544924                       # Total read bandwidth from this memory (bytes/s)
system.physmem.bw_read::switch_cpus5.inst        49069                       # Total read bandwidth from this memory (bytes/s)
system.physmem.bw_read::switch_cpus5.data     10164267                       # Total read bandwidth from this memory (bytes/s)
system.physmem.bw_read::switch_cpus6.inst        46732                       # Total read bandwidth from this memory (bytes/s)
system.physmem.bw_read::switch_cpus6.data     33086443                       # Total read bandwidth from this memory (bytes/s)
system.physmem.bw_read::switch_cpus7.inst        47901                       # Total read bandwidth from this memory (bytes/s)
system.physmem.bw_read::switch_cpus7.data     33186917                       # Total read bandwidth from this memory (bytes/s)
system.physmem.bw_read::total               167377445                       # Total read bandwidth from this memory (bytes/s)
system.physmem.bw_inst_read::switch_cpus0.inst        42059                       # Instruction read bandwidth from this memory (bytes/s)
system.physmem.bw_inst_read::switch_cpus1.inst        43227                       # Instruction read bandwidth from this memory (bytes/s)
system.physmem.bw_inst_read::switch_cpus2.inst        39722                       # Instruction read bandwidth from this memory (bytes/s)
system.physmem.bw_inst_read::switch_cpus3.inst        49069                       # Instruction read bandwidth from this memory (bytes/s)
system.physmem.bw_inst_read::switch_cpus4.inst        45564                       # Instruction read bandwidth from this memory (bytes/s)
system.physmem.bw_inst_read::switch_cpus5.inst        49069                       # Instruction read bandwidth from this memory (bytes/s)
system.physmem.bw_inst_read::switch_cpus6.inst        46732                       # Instruction read bandwidth from this memory (bytes/s)
system.physmem.bw_inst_read::switch_cpus7.inst        47901                       # Instruction read bandwidth from this memory (bytes/s)
system.physmem.bw_inst_read::total             363343                       # Instruction read bandwidth from this memory (bytes/s)
system.physmem.bw_write::writebacks          50474350                       # Write bandwidth from this memory (bytes/s)
system.physmem.bw_write::total               50474350                       # Write bandwidth from this memory (bytes/s)
system.physmem.bw_total::writebacks          50474350                       # Total bandwidth to/from this memory (bytes/s)
system.physmem.bw_total::switch_cpus0.inst        42059                       # Total bandwidth to/from this memory (bytes/s)
system.physmem.bw_total::switch_cpus0.data     16484806                       # Total bandwidth to/from this memory (bytes/s)
system.physmem.bw_total::switch_cpus1.inst        43227                       # Total bandwidth to/from this memory (bytes/s)
system.physmem.bw_total::switch_cpus1.data     16196234                       # Total bandwidth to/from this memory (bytes/s)
system.physmem.bw_total::switch_cpus2.inst        39722                       # Total bandwidth to/from this memory (bytes/s)
system.physmem.bw_total::switch_cpus2.data     17175275                       # Total bandwidth to/from this memory (bytes/s)
system.physmem.bw_total::switch_cpus3.inst        49069                       # Total bandwidth to/from this memory (bytes/s)
system.physmem.bw_total::switch_cpus3.data     33175234                       # Total bandwidth to/from this memory (bytes/s)
system.physmem.bw_total::switch_cpus4.inst        45564                       # Total bandwidth to/from this memory (bytes/s)
system.physmem.bw_total::switch_cpus4.data      7544924                       # Total bandwidth to/from this memory (bytes/s)
system.physmem.bw_total::switch_cpus5.inst        49069                       # Total bandwidth to/from this memory (bytes/s)
system.physmem.bw_total::switch_cpus5.data     10164267                       # Total bandwidth to/from this memory (bytes/s)
system.physmem.bw_total::switch_cpus6.inst        46732                       # Total bandwidth to/from this memory (bytes/s)
system.physmem.bw_total::switch_cpus6.data     33086443                       # Total bandwidth to/from this memory (bytes/s)
system.physmem.bw_total::switch_cpus7.inst        47901                       # Total bandwidth to/from this memory (bytes/s)
system.physmem.bw_total::switch_cpus7.data     33186917                       # Total bandwidth to/from this memory (bytes/s)
system.physmem.bw_total::total              217851795                       # Total bandwidth to/from this memory (bytes/s)
system.switch_cpus0.dtb.inst_hits                   0                       # ITB inst hits
system.switch_cpus0.dtb.inst_misses                 0                       # ITB inst misses
system.switch_cpus0.dtb.read_hits                   0                       # DTB read hits
system.switch_cpus0.dtb.read_misses                 0                       # DTB read misses
system.switch_cpus0.dtb.write_hits                  0                       # DTB write hits
system.switch_cpus0.dtb.write_misses                0                       # DTB write misses
system.switch_cpus0.dtb.flush_tlb                   0                       # Number of times complete TLB was flushed
system.switch_cpus0.dtb.flush_tlb_mva               0                       # Number of times TLB was flushed by MVA
system.switch_cpus0.dtb.flush_tlb_mva_asid            0                       # Number of times TLB was flushed by MVA & ASID
system.switch_cpus0.dtb.flush_tlb_asid              0                       # Number of times TLB was flushed by ASID
system.switch_cpus0.dtb.flush_entries               0                       # Number of entries that have been flushed from TLB
system.switch_cpus0.dtb.align_faults                0                       # Number of TLB faults due to alignment restrictions
system.switch_cpus0.dtb.prefetch_faults             0                       # Number of TLB faults due to prefetch
system.switch_cpus0.dtb.domain_faults               0                       # Number of TLB faults due to domain restrictions
system.switch_cpus0.dtb.perms_faults                0                       # Number of TLB faults due to permissions restrictions
system.switch_cpus0.dtb.read_accesses               0                       # DTB read accesses
system.switch_cpus0.dtb.write_accesses              0                       # DTB write accesses
system.switch_cpus0.dtb.inst_accesses               0                       # ITB inst accesses
system.switch_cpus0.dtb.hits                        0                       # DTB hits
system.switch_cpus0.dtb.misses                      0                       # DTB misses
system.switch_cpus0.dtb.accesses                    0                       # DTB accesses
system.switch_cpus0.itb.inst_hits                   0                       # ITB inst hits
system.switch_cpus0.itb.inst_misses                 0                       # ITB inst misses
system.switch_cpus0.itb.read_hits                   0                       # DTB read hits
system.switch_cpus0.itb.read_misses                 0                       # DTB read misses
system.switch_cpus0.itb.write_hits                  0                       # DTB write hits
system.switch_cpus0.itb.write_misses                0                       # DTB write misses
system.switch_cpus0.itb.flush_tlb                   0                       # Number of times complete TLB was flushed
system.switch_cpus0.itb.flush_tlb_mva               0                       # Number of times TLB was flushed by MVA
system.switch_cpus0.itb.flush_tlb_mva_asid            0                       # Number of times TLB was flushed by MVA & ASID
system.switch_cpus0.itb.flush_tlb_asid              0                       # Number of times TLB was flushed by ASID
system.switch_cpus0.itb.flush_entries               0                       # Number of entries that have been flushed from TLB
system.switch_cpus0.itb.align_faults                0                       # Number of TLB faults due to alignment restrictions
system.switch_cpus0.itb.prefetch_faults             0                       # Number of TLB faults due to prefetch
system.switch_cpus0.itb.domain_faults               0                       # Number of TLB faults due to domain restrictions
system.switch_cpus0.itb.perms_faults                0                       # Number of TLB faults due to permissions restrictions
system.switch_cpus0.itb.read_accesses               0                       # DTB read accesses
system.switch_cpus0.itb.write_accesses              0                       # DTB write accesses
system.switch_cpus0.itb.inst_accesses               0                       # ITB inst accesses
system.switch_cpus0.itb.hits                        0                       # DTB hits
system.switch_cpus0.itb.misses                      0                       # DTB misses
system.switch_cpus0.itb.accesses                    0                       # DTB accesses
system.cpu0.workload.num_syscalls                  52                       # Number of system calls
system.switch_cpus0.numCycles               262734489                       # number of cpu cycles simulated
system.switch_cpus0.numWorkItemsStarted             0                       # number of work items this cpu started
system.switch_cpus0.numWorkItemsCompleted            0                       # number of work items this cpu completed
system.switch_cpus0.BPredUnit.lookups        20700516                       # Number of BP lookups
system.switch_cpus0.BPredUnit.condPredicted     16976748                       # Number of conditional branches predicted
system.switch_cpus0.BPredUnit.condIncorrect      2025089                       # Number of conditional branches incorrect
system.switch_cpus0.BPredUnit.BTBLookups      8552312                       # Number of BTB lookups
system.switch_cpus0.BPredUnit.BTBHits         8091414                       # Number of BTB hits
system.switch_cpus0.BPredUnit.BTBCorrect            0                       # Number of correct BTB predictions (this stat may not work properly.
system.switch_cpus0.BPredUnit.usedRAS         2122938                       # Number of times the RAS was used to get a target.
system.switch_cpus0.BPredUnit.RASInCorrect        90534                       # Number of incorrect RAS predictions.
system.switch_cpus0.fetch.icacheStallCycles    197450346                       # Number of cycles fetch is stalled on an Icache miss
system.switch_cpus0.fetch.Insts             117650174                       # Number of instructions fetch has processed
system.switch_cpus0.fetch.Branches           20700516                       # Number of branches that fetch encountered
system.switch_cpus0.fetch.predictedBranches     10214352                       # Number of branches that fetch has predicted taken
system.switch_cpus0.fetch.Cycles             25879407                       # Number of cycles fetch has run and was not squashing or blocked
system.switch_cpus0.fetch.SquashCycles        5753519                       # Number of cycles fetch has spent squashing
system.switch_cpus0.fetch.BlockedCycles      10585016                       # Number of cycles fetch has spent blocked
system.switch_cpus0.fetch.CacheLines         12164598                       # Number of cache lines fetched
system.switch_cpus0.fetch.IcacheSquashes      2010981                       # Number of outstanding Icache misses that were squashed
system.switch_cpus0.fetch.rateDist::samples    237610581                       # Number of instructions fetched each cycle (Total)
system.switch_cpus0.fetch.rateDist::mean     0.605426                       # Number of instructions fetched each cycle (Total)
system.switch_cpus0.fetch.rateDist::stdev     1.951860                       # Number of instructions fetched each cycle (Total)
system.switch_cpus0.fetch.rateDist::underflows            0      0.00%      0.00% # Number of instructions fetched each cycle (Total)
system.switch_cpus0.fetch.rateDist::0       211731174     89.11%     89.11% # Number of instructions fetched each cycle (Total)
system.switch_cpus0.fetch.rateDist::1         2803022      1.18%     90.29% # Number of instructions fetched each cycle (Total)
system.switch_cpus0.fetch.rateDist::2         3241742      1.36%     91.65% # Number of instructions fetched each cycle (Total)
system.switch_cpus0.fetch.rateDist::3         1782828      0.75%     92.40% # Number of instructions fetched each cycle (Total)
system.switch_cpus0.fetch.rateDist::4         2067079      0.87%     93.27% # Number of instructions fetched each cycle (Total)
system.switch_cpus0.fetch.rateDist::5         1127838      0.47%     93.75% # Number of instructions fetched each cycle (Total)
system.switch_cpus0.fetch.rateDist::6          768017      0.32%     94.07% # Number of instructions fetched each cycle (Total)
system.switch_cpus0.fetch.rateDist::7         2005954      0.84%     94.91% # Number of instructions fetched each cycle (Total)
system.switch_cpus0.fetch.rateDist::8        12082927      5.09%    100.00% # Number of instructions fetched each cycle (Total)
system.switch_cpus0.fetch.rateDist::overflows            0      0.00%    100.00% # Number of instructions fetched each cycle (Total)
system.switch_cpus0.fetch.rateDist::min_value            0                       # Number of instructions fetched each cycle (Total)
system.switch_cpus0.fetch.rateDist::max_value            8                       # Number of instructions fetched each cycle (Total)
system.switch_cpus0.fetch.rateDist::total    237610581                       # Number of instructions fetched each cycle (Total)
system.switch_cpus0.fetch.branchRate         0.078789                       # Number of branch fetches per cycle
system.switch_cpus0.fetch.rate               0.447791                       # Number of inst fetches per cycle
system.switch_cpus0.decode.IdleCycles       195861033                       # Number of cycles decode is idle
system.switch_cpus0.decode.BlockedCycles     12204873                       # Number of cycles decode is blocked
system.switch_cpus0.decode.RunCycles         25672153                       # Number of cycles decode is running
system.switch_cpus0.decode.UnblockCycles       195596                       # Number of cycles decode is unblocking
system.switch_cpus0.decode.SquashCycles       3676920                       # Number of cycles decode is squashing
system.switch_cpus0.decode.BranchResolved      3359378                       # Number of times decode resolved a branch
system.switch_cpus0.decode.BranchMispred        18892                       # Number of times decode detected a branch misprediction
system.switch_cpus0.decode.DecodedInsts     143624490                       # Number of instructions handled by decode
system.switch_cpus0.decode.SquashedInsts        93492                       # Number of squashed instructions handled by decode
system.switch_cpus0.rename.SquashCycles       3676920                       # Number of cycles rename is squashing
system.switch_cpus0.rename.IdleCycles       196166245                       # Number of cycles rename is idle
system.switch_cpus0.rename.BlockCycles        4441297                       # Number of cycles rename is blocking
system.switch_cpus0.rename.serializeStallCycles      6899302                       # count of cycles rename stalled for serializing inst
system.switch_cpus0.rename.RunCycles         25573909                       # Number of cycles rename is running
system.switch_cpus0.rename.UnblockCycles       852902                       # Number of cycles rename is unblocking
system.switch_cpus0.rename.RenamedInsts     143535822                       # Number of instructions processed by rename
system.switch_cpus0.rename.ROBFullEvents          232                       # Number of times rename has blocked due to ROB full
system.switch_cpus0.rename.IQFullEvents        227727                       # Number of times rename has blocked due to IQ full
system.switch_cpus0.rename.LSQFullEvents       392404                       # Number of times rename has blocked due to LSQ full
system.switch_cpus0.rename.RenamedOperands    199455532                       # Number of destination operands rename has renamed
system.switch_cpus0.rename.RenameLookups    668332063                       # Number of register rename lookups that rename has made
system.switch_cpus0.rename.int_rename_lookups    668332063                       # Number of integer rename lookups
system.switch_cpus0.rename.CommittedMaps    170291692                       # Number of HB maps that are committed
system.switch_cpus0.rename.UndoneMaps        29163800                       # Number of HB maps that are undone due to squashing
system.switch_cpus0.rename.serializingInsts        37380                       # count of serializing insts renamed
system.switch_cpus0.rename.tempSerializingInsts        20757                       # count of temporary serializing insts renamed
system.switch_cpus0.rename.skidInsts          2278619                       # count of insts added to the skid buffer
system.switch_cpus0.memDep0.insertedLoads     13703739                       # Number of loads inserted to the mem dependence unit.
system.switch_cpus0.memDep0.insertedStores      7465108                       # Number of stores inserted to the mem dependence unit.
system.switch_cpus0.memDep0.conflictingLoads       197745                       # Number of conflicting loads.
system.switch_cpus0.memDep0.conflictingStores      1659579                       # Number of conflicting stores.
system.switch_cpus0.iq.iqInstsAdded         143313761                       # Number of instructions added to the IQ (excludes non-spec)
system.switch_cpus0.iq.iqNonSpecInstsAdded        37451                       # Number of non-speculative instructions added to the IQ
system.switch_cpus0.iq.iqInstsIssued        135403885                       # Number of instructions issued
system.switch_cpus0.iq.iqSquashedInstsIssued       190045                       # Number of squashed instructions issued
system.switch_cpus0.iq.iqSquashedInstsExamined     17947792                       # Number of squashed instructions iterated over during squash; mainly for profiling
system.switch_cpus0.iq.iqSquashedOperandsExamined     41575293                       # Number of squashed operands that are examined and possibly removed from graph
system.switch_cpus0.iq.iqSquashedNonSpecRemoved         4001                       # Number of squashed non-spec instructions that were removed
system.switch_cpus0.iq.issued_per_cycle::samples    237610581                       # Number of insts issued each cycle
system.switch_cpus0.iq.issued_per_cycle::mean     0.569856                       # Number of insts issued each cycle
system.switch_cpus0.iq.issued_per_cycle::stdev     1.260518                       # Number of insts issued each cycle
system.switch_cpus0.iq.issued_per_cycle::underflows            0      0.00%      0.00% # Number of insts issued each cycle
system.switch_cpus0.iq.issued_per_cycle::0    180553823     75.99%     75.99% # Number of insts issued each cycle
system.switch_cpus0.iq.issued_per_cycle::1     22954053      9.66%     85.65% # Number of insts issued each cycle
system.switch_cpus0.iq.issued_per_cycle::2     12322541      5.19%     90.83% # Number of insts issued each cycle
system.switch_cpus0.iq.issued_per_cycle::3      8536226      3.59%     94.43% # Number of insts issued each cycle
system.switch_cpus0.iq.issued_per_cycle::4      7465222      3.14%     97.57% # Number of insts issued each cycle
system.switch_cpus0.iq.issued_per_cycle::5      3822749      1.61%     99.18% # Number of insts issued each cycle
system.switch_cpus0.iq.issued_per_cycle::6       915858      0.39%     99.56% # Number of insts issued each cycle
system.switch_cpus0.iq.issued_per_cycle::7       594581      0.25%     99.81% # Number of insts issued each cycle
system.switch_cpus0.iq.issued_per_cycle::8       445528      0.19%    100.00% # Number of insts issued each cycle
system.switch_cpus0.iq.issued_per_cycle::overflows            0      0.00%    100.00% # Number of insts issued each cycle
system.switch_cpus0.iq.issued_per_cycle::min_value            0                       # Number of insts issued each cycle
system.switch_cpus0.iq.issued_per_cycle::max_value            8                       # Number of insts issued each cycle
system.switch_cpus0.iq.issued_per_cycle::total    237610581                       # Number of insts issued each cycle
system.switch_cpus0.iq.fu_full::No_OpClass            0      0.00%      0.00% # attempts to use FU when none available
system.switch_cpus0.iq.fu_full::IntAlu          35542     12.20%     12.20% # attempts to use FU when none available
system.switch_cpus0.iq.fu_full::IntMult             0      0.00%     12.20% # attempts to use FU when none available
system.switch_cpus0.iq.fu_full::IntDiv              0      0.00%     12.20% # attempts to use FU when none available
system.switch_cpus0.iq.fu_full::FloatAdd            0      0.00%     12.20% # attempts to use FU when none available
system.switch_cpus0.iq.fu_full::FloatCmp            0      0.00%     12.20% # attempts to use FU when none available
system.switch_cpus0.iq.fu_full::FloatCvt            0      0.00%     12.20% # attempts to use FU when none available
system.switch_cpus0.iq.fu_full::FloatMult            0      0.00%     12.20% # attempts to use FU when none available
system.switch_cpus0.iq.fu_full::FloatDiv            0      0.00%     12.20% # attempts to use FU when none available
system.switch_cpus0.iq.fu_full::FloatSqrt            0      0.00%     12.20% # attempts to use FU when none available
system.switch_cpus0.iq.fu_full::SimdAdd             0      0.00%     12.20% # attempts to use FU when none available
system.switch_cpus0.iq.fu_full::SimdAddAcc            0      0.00%     12.20% # attempts to use FU when none available
system.switch_cpus0.iq.fu_full::SimdAlu             0      0.00%     12.20% # attempts to use FU when none available
system.switch_cpus0.iq.fu_full::SimdCmp             0      0.00%     12.20% # attempts to use FU when none available
system.switch_cpus0.iq.fu_full::SimdCvt             0      0.00%     12.20% # attempts to use FU when none available
system.switch_cpus0.iq.fu_full::SimdMisc            0      0.00%     12.20% # attempts to use FU when none available
system.switch_cpus0.iq.fu_full::SimdMult            0      0.00%     12.20% # attempts to use FU when none available
system.switch_cpus0.iq.fu_full::SimdMultAcc            0      0.00%     12.20% # attempts to use FU when none available
system.switch_cpus0.iq.fu_full::SimdShift            0      0.00%     12.20% # attempts to use FU when none available
system.switch_cpus0.iq.fu_full::SimdShiftAcc            0      0.00%     12.20% # attempts to use FU when none available
system.switch_cpus0.iq.fu_full::SimdSqrt            0      0.00%     12.20% # attempts to use FU when none available
system.switch_cpus0.iq.fu_full::SimdFloatAdd            0      0.00%     12.20% # attempts to use FU when none available
system.switch_cpus0.iq.fu_full::SimdFloatAlu            0      0.00%     12.20% # attempts to use FU when none available
system.switch_cpus0.iq.fu_full::SimdFloatCmp            0      0.00%     12.20% # attempts to use FU when none available
system.switch_cpus0.iq.fu_full::SimdFloatCvt            0      0.00%     12.20% # attempts to use FU when none available
system.switch_cpus0.iq.fu_full::SimdFloatDiv            0      0.00%     12.20% # attempts to use FU when none available
system.switch_cpus0.iq.fu_full::SimdFloatMisc            0      0.00%     12.20% # attempts to use FU when none available
system.switch_cpus0.iq.fu_full::SimdFloatMult            0      0.00%     12.20% # attempts to use FU when none available
system.switch_cpus0.iq.fu_full::SimdFloatMultAcc            0      0.00%     12.20% # attempts to use FU when none available
system.switch_cpus0.iq.fu_full::SimdFloatSqrt            0      0.00%     12.20% # attempts to use FU when none available
system.switch_cpus0.iq.fu_full::MemRead        124895     42.86%     55.06% # attempts to use FU when none available
system.switch_cpus0.iq.fu_full::MemWrite       130950     44.94%    100.00% # attempts to use FU when none available
system.switch_cpus0.iq.fu_full::IprAccess            0      0.00%    100.00% # attempts to use FU when none available
system.switch_cpus0.iq.fu_full::InstPrefetch            0      0.00%    100.00% # attempts to use FU when none available
system.switch_cpus0.iq.FU_type_0::No_OpClass            0      0.00%      0.00% # Type of FU issued
system.switch_cpus0.iq.FU_type_0::IntAlu    113337665     83.70%     83.70% # Type of FU issued
system.switch_cpus0.iq.FU_type_0::IntMult      2117965      1.56%     85.27% # Type of FU issued
system.switch_cpus0.iq.FU_type_0::IntDiv            0      0.00%     85.27% # Type of FU issued
system.switch_cpus0.iq.FU_type_0::FloatAdd            0      0.00%     85.27% # Type of FU issued
system.switch_cpus0.iq.FU_type_0::FloatCmp            0      0.00%     85.27% # Type of FU issued
system.switch_cpus0.iq.FU_type_0::FloatCvt            0      0.00%     85.27% # Type of FU issued
system.switch_cpus0.iq.FU_type_0::FloatMult            0      0.00%     85.27% # Type of FU issued
system.switch_cpus0.iq.FU_type_0::FloatDiv            0      0.00%     85.27% # Type of FU issued
system.switch_cpus0.iq.FU_type_0::FloatSqrt            0      0.00%     85.27% # Type of FU issued
system.switch_cpus0.iq.FU_type_0::SimdAdd            0      0.00%     85.27% # Type of FU issued
system.switch_cpus0.iq.FU_type_0::SimdAddAcc            0      0.00%     85.27% # Type of FU issued
system.switch_cpus0.iq.FU_type_0::SimdAlu            0      0.00%     85.27% # Type of FU issued
system.switch_cpus0.iq.FU_type_0::SimdCmp            0      0.00%     85.27% # Type of FU issued
system.switch_cpus0.iq.FU_type_0::SimdCvt            0      0.00%     85.27% # Type of FU issued
system.switch_cpus0.iq.FU_type_0::SimdMisc            0      0.00%     85.27% # Type of FU issued
system.switch_cpus0.iq.FU_type_0::SimdMult            0      0.00%     85.27% # Type of FU issued
system.switch_cpus0.iq.FU_type_0::SimdMultAcc            0      0.00%     85.27% # Type of FU issued
system.switch_cpus0.iq.FU_type_0::SimdShift            0      0.00%     85.27% # Type of FU issued
system.switch_cpus0.iq.FU_type_0::SimdShiftAcc            0      0.00%     85.27% # Type of FU issued
system.switch_cpus0.iq.FU_type_0::SimdSqrt            0      0.00%     85.27% # Type of FU issued
system.switch_cpus0.iq.FU_type_0::SimdFloatAdd            0      0.00%     85.27% # Type of FU issued
system.switch_cpus0.iq.FU_type_0::SimdFloatAlu            0      0.00%     85.27% # Type of FU issued
system.switch_cpus0.iq.FU_type_0::SimdFloatCmp            0      0.00%     85.27% # Type of FU issued
system.switch_cpus0.iq.FU_type_0::SimdFloatCvt            0      0.00%     85.27% # Type of FU issued
system.switch_cpus0.iq.FU_type_0::SimdFloatDiv            0      0.00%     85.27% # Type of FU issued
system.switch_cpus0.iq.FU_type_0::SimdFloatMisc        16584      0.01%     85.28% # Type of FU issued
system.switch_cpus0.iq.FU_type_0::SimdFloatMult            0      0.00%     85.28% # Type of FU issued
system.switch_cpus0.iq.FU_type_0::SimdFloatMultAcc            0      0.00%     85.28% # Type of FU issued
system.switch_cpus0.iq.FU_type_0::SimdFloatSqrt            0      0.00%     85.28% # Type of FU issued
system.switch_cpus0.iq.FU_type_0::MemRead     12521047      9.25%     94.53% # Type of FU issued
system.switch_cpus0.iq.FU_type_0::MemWrite      7410624      5.47%    100.00% # Type of FU issued
system.switch_cpus0.iq.FU_type_0::IprAccess            0      0.00%    100.00% # Type of FU issued
system.switch_cpus0.iq.FU_type_0::InstPrefetch            0      0.00%    100.00% # Type of FU issued
system.switch_cpus0.iq.FU_type_0::total     135403885                       # Type of FU issued
system.switch_cpus0.iq.rate                  0.515364                       # Inst issue rate
system.switch_cpus0.iq.fu_busy_cnt             291387                       # FU busy when requested
system.switch_cpus0.iq.fu_busy_rate          0.002152                       # FU busy rate (busy events/executed inst)
system.switch_cpus0.iq.int_inst_queue_reads    508899779                       # Number of integer instruction queue reads
system.switch_cpus0.iq.int_inst_queue_writes    161300263                       # Number of integer instruction queue writes
system.switch_cpus0.iq.int_inst_queue_wakeup_accesses    133164611                       # Number of integer instruction queue wakeup accesses
system.switch_cpus0.iq.fp_inst_queue_reads            0                       # Number of floating instruction queue reads
system.switch_cpus0.iq.fp_inst_queue_writes            0                       # Number of floating instruction queue writes
system.switch_cpus0.iq.fp_inst_queue_wakeup_accesses            0                       # Number of floating instruction queue wakeup accesses
system.switch_cpus0.iq.int_alu_accesses     135695272                       # Number of integer alu accesses
system.switch_cpus0.iq.fp_alu_accesses              0                       # Number of floating point alu accesses
system.switch_cpus0.iew.lsq.thread0.forwLoads       342286                       # Number of loads that had data forwarded from stores
system.switch_cpus0.iew.lsq.thread0.invAddrLoads            0                       # Number of loads ignored due to an invalid address
system.switch_cpus0.iew.lsq.thread0.squashedLoads      2420056                       # Number of loads squashed
system.switch_cpus0.iew.lsq.thread0.ignoredResponses          821                       # Number of memory responses ignored because the instruction is squashed
system.switch_cpus0.iew.lsq.thread0.memOrderViolation         1265                       # Number of memory ordering violations
system.switch_cpus0.iew.lsq.thread0.squashedStores       164436                       # Number of stores squashed
system.switch_cpus0.iew.lsq.thread0.invAddrSwpfs            0                       # Number of software prefetches ignored due to an invalid address
system.switch_cpus0.iew.lsq.thread0.blockedLoads            0                       # Number of blocked loads due to partial load-store forwarding
system.switch_cpus0.iew.lsq.thread0.rescheduledLoads         8292                       # Number of loads that were rescheduled
system.switch_cpus0.iew.lsq.thread0.cacheBlocked         1399                       # Number of times an access to memory failed due to the cache being blocked
system.switch_cpus0.iew.iewIdleCycles               0                       # Number of cycles IEW is idle
system.switch_cpus0.iew.iewSquashCycles       3676920                       # Number of cycles IEW is squashing
system.switch_cpus0.iew.iewBlockCycles        3935623                       # Number of cycles IEW is blocking
system.switch_cpus0.iew.iewUnblockCycles       150764                       # Number of cycles IEW is unblocking
system.switch_cpus0.iew.iewDispatchedInsts    143351337                       # Number of instructions dispatched to IQ
system.switch_cpus0.iew.iewDispSquashedInsts        62310                       # Number of squashed instructions skipped by dispatch
system.switch_cpus0.iew.iewDispLoadInsts     13703739                       # Number of dispatched load instructions
system.switch_cpus0.iew.iewDispStoreInsts      7465108                       # Number of dispatched store instructions
system.switch_cpus0.iew.iewDispNonSpecInsts        20741                       # Number of dispatched non-speculative instructions
system.switch_cpus0.iew.iewIQFullEvents        104844                       # Number of times the IQ has become full, causing a stall
system.switch_cpus0.iew.iewLSQFullEvents            0                       # Number of times the LSQ has become full, causing a stall
system.switch_cpus0.iew.memOrderViolationEvents         1265                       # Number of memory order violations
system.switch_cpus0.iew.predictedTakenIncorrect      1172941                       # Number of branches that were predicted taken incorrectly
system.switch_cpus0.iew.predictedNotTakenIncorrect      1137822                       # Number of branches that were predicted not taken incorrectly
system.switch_cpus0.iew.branchMispredicts      2310763                       # Number of branch mispredicts detected at execute
system.switch_cpus0.iew.iewExecutedInsts    133417026                       # Number of executed instructions
system.switch_cpus0.iew.iewExecLoadInsts     11758752                       # Number of load instructions executed
system.switch_cpus0.iew.iewExecSquashedInsts      1986855                       # Number of squashed instructions skipped in execute
system.switch_cpus0.iew.exec_swp                    0                       # number of swp insts executed
system.switch_cpus0.iew.exec_nop                  125                       # number of nop insts executed
system.switch_cpus0.iew.exec_refs            19167465                       # number of memory reference insts executed
system.switch_cpus0.iew.exec_branches        18667523                       # Number of branches executed
system.switch_cpus0.iew.exec_stores           7408713                       # Number of stores executed
system.switch_cpus0.iew.exec_rate            0.507802                       # Inst execution rate
system.switch_cpus0.iew.wb_sent             133166618                       # cumulative count of insts sent to commit
system.switch_cpus0.iew.wb_count            133164611                       # cumulative count of insts written-back
system.switch_cpus0.iew.wb_producers         79150468                       # num instructions producing a value
system.switch_cpus0.iew.wb_consumers        207328822                       # num instructions consuming a value
system.switch_cpus0.iew.wb_penalized                0                       # number of instrctions required to write to 'other' IQ
system.switch_cpus0.iew.wb_rate              0.506841                       # insts written-back per cycle
system.switch_cpus0.iew.wb_fanout            0.381763                       # average fanout of values written-back
system.switch_cpus0.iew.wb_penalized_rate            0                       # fraction of instructions written-back that wrote to 'other' IQ
system.switch_cpus0.commit.commitCommittedInsts    100000003                       # The number of committed instructions
system.switch_cpus0.commit.commitCommittedOps    122687896                       # The number of committed instructions
system.switch_cpus0.commit.commitSquashedInsts     20664594                       # The number of squashed insts skipped by commit
system.switch_cpus0.commit.commitNonSpecStalls        33450                       # The number of times commit has been forced to stall to communicate backwards
system.switch_cpus0.commit.branchMispredicts      2036626                       # The number of times a branch was mispredicted
system.switch_cpus0.commit.committed_per_cycle::samples    233933661                       # Number of insts commited each cycle
system.switch_cpus0.commit.committed_per_cycle::mean     0.524456                       # Number of insts commited each cycle
system.switch_cpus0.commit.committed_per_cycle::stdev     1.342729                       # Number of insts commited each cycle
system.switch_cpus0.commit.committed_per_cycle::underflows            0      0.00%      0.00% # Number of insts commited each cycle
system.switch_cpus0.commit.committed_per_cycle::0    183814167     78.58%     78.58% # Number of insts commited each cycle
system.switch_cpus0.commit.committed_per_cycle::1     23242343      9.94%     88.51% # Number of insts commited each cycle
system.switch_cpus0.commit.committed_per_cycle::2      9739339      4.16%     92.67% # Number of insts commited each cycle
system.switch_cpus0.commit.committed_per_cycle::3      5854320      2.50%     95.18% # Number of insts commited each cycle
system.switch_cpus0.commit.committed_per_cycle::4      4052064      1.73%     96.91% # Number of insts commited each cycle
system.switch_cpus0.commit.committed_per_cycle::5      2616063      1.12%     98.03% # Number of insts commited each cycle
system.switch_cpus0.commit.committed_per_cycle::6      1357724      0.58%     98.61% # Number of insts commited each cycle
system.switch_cpus0.commit.committed_per_cycle::7      1092128      0.47%     99.07% # Number of insts commited each cycle
system.switch_cpus0.commit.committed_per_cycle::8      2165513      0.93%    100.00% # Number of insts commited each cycle
system.switch_cpus0.commit.committed_per_cycle::overflows            0      0.00%    100.00% # Number of insts commited each cycle
system.switch_cpus0.commit.committed_per_cycle::min_value            0                       # Number of insts commited each cycle
system.switch_cpus0.commit.committed_per_cycle::max_value            8                       # Number of insts commited each cycle
system.switch_cpus0.commit.committed_per_cycle::total    233933661                       # Number of insts commited each cycle
system.switch_cpus0.commit.committedInsts    100000003                       # Number of instructions committed
system.switch_cpus0.commit.committedOps     122687896                       # Number of ops (including micro ops) committed
system.switch_cpus0.commit.swp_count                0                       # Number of s/w prefetches committed
system.switch_cpus0.commit.refs              18584355                       # Number of memory references committed
system.switch_cpus0.commit.loads             11283683                       # Number of loads committed
system.switch_cpus0.commit.membars              16688                       # Number of memory barriers committed
system.switch_cpus0.commit.branches          17558823                       # Number of branches committed
system.switch_cpus0.commit.fp_insts                 0                       # Number of committed floating point instructions.
system.switch_cpus0.commit.int_insts        110607967                       # Number of committed integer instructions.
system.switch_cpus0.commit.function_calls      2496073                       # Number of function calls committed.
system.switch_cpus0.commit.bw_lim_events      2165513                       # number cycles where commit BW limit reached
system.switch_cpus0.commit.bw_limited               0                       # number of insts not committed due to BW limits
system.switch_cpus0.rob.rob_reads           375119962                       # The number of ROB reads
system.switch_cpus0.rob.rob_writes          290381999                       # The number of ROB writes
system.switch_cpus0.timesIdled                3024893                       # Number of times that the entire CPU went into an idle state and unscheduled itself
system.switch_cpus0.idleCycles               25123908                       # Total number of cycles that the CPU has spent unscheduled due to idling
system.switch_cpus0.committedInsts          100000003                       # Number of Instructions Simulated
system.switch_cpus0.committedOps            122687896                       # Number of Ops (including micro ops) Simulated
system.switch_cpus0.committedInsts_total    100000003                       # Number of Instructions Simulated
system.switch_cpus0.cpi                      2.627345                       # CPI: Cycles Per Instruction
system.switch_cpus0.cpi_total                2.627345                       # CPI: Total CPI of All Threads
system.switch_cpus0.ipc                      0.380612                       # IPC: Instructions Per Cycle
system.switch_cpus0.ipc_total                0.380612                       # IPC: Total IPC of All Threads
system.switch_cpus0.int_regfile_reads       601829068                       # number of integer regfile reads
system.switch_cpus0.int_regfile_writes      184817903                       # number of integer regfile writes
system.switch_cpus0.misc_regfile_reads      134033747                       # number of misc regfile reads
system.switch_cpus0.misc_regfile_writes         33420                       # number of misc regfile writes
system.switch_cpus1.dtb.inst_hits                   0                       # ITB inst hits
system.switch_cpus1.dtb.inst_misses                 0                       # ITB inst misses
system.switch_cpus1.dtb.read_hits                   0                       # DTB read hits
system.switch_cpus1.dtb.read_misses                 0                       # DTB read misses
system.switch_cpus1.dtb.write_hits                  0                       # DTB write hits
system.switch_cpus1.dtb.write_misses                0                       # DTB write misses
system.switch_cpus1.dtb.flush_tlb                   0                       # Number of times complete TLB was flushed
system.switch_cpus1.dtb.flush_tlb_mva               0                       # Number of times TLB was flushed by MVA
system.switch_cpus1.dtb.flush_tlb_mva_asid            0                       # Number of times TLB was flushed by MVA & ASID
system.switch_cpus1.dtb.flush_tlb_asid              0                       # Number of times TLB was flushed by ASID
system.switch_cpus1.dtb.flush_entries               0                       # Number of entries that have been flushed from TLB
system.switch_cpus1.dtb.align_faults                0                       # Number of TLB faults due to alignment restrictions
system.switch_cpus1.dtb.prefetch_faults             0                       # Number of TLB faults due to prefetch
system.switch_cpus1.dtb.domain_faults               0                       # Number of TLB faults due to domain restrictions
system.switch_cpus1.dtb.perms_faults                0                       # Number of TLB faults due to permissions restrictions
system.switch_cpus1.dtb.read_accesses               0                       # DTB read accesses
system.switch_cpus1.dtb.write_accesses              0                       # DTB write accesses
system.switch_cpus1.dtb.inst_accesses               0                       # ITB inst accesses
system.switch_cpus1.dtb.hits                        0                       # DTB hits
system.switch_cpus1.dtb.misses                      0                       # DTB misses
system.switch_cpus1.dtb.accesses                    0                       # DTB accesses
system.switch_cpus1.itb.inst_hits                   0                       # ITB inst hits
system.switch_cpus1.itb.inst_misses                 0                       # ITB inst misses
system.switch_cpus1.itb.read_hits                   0                       # DTB read hits
system.switch_cpus1.itb.read_misses                 0                       # DTB read misses
system.switch_cpus1.itb.write_hits                  0                       # DTB write hits
system.switch_cpus1.itb.write_misses                0                       # DTB write misses
system.switch_cpus1.itb.flush_tlb                   0                       # Number of times complete TLB was flushed
system.switch_cpus1.itb.flush_tlb_mva               0                       # Number of times TLB was flushed by MVA
system.switch_cpus1.itb.flush_tlb_mva_asid            0                       # Number of times TLB was flushed by MVA & ASID
system.switch_cpus1.itb.flush_tlb_asid              0                       # Number of times TLB was flushed by ASID
system.switch_cpus1.itb.flush_entries               0                       # Number of entries that have been flushed from TLB
system.switch_cpus1.itb.align_faults                0                       # Number of TLB faults due to alignment restrictions
system.switch_cpus1.itb.prefetch_faults             0                       # Number of TLB faults due to prefetch
system.switch_cpus1.itb.domain_faults               0                       # Number of TLB faults due to domain restrictions
system.switch_cpus1.itb.perms_faults                0                       # Number of TLB faults due to permissions restrictions
system.switch_cpus1.itb.read_accesses               0                       # DTB read accesses
system.switch_cpus1.itb.write_accesses              0                       # DTB write accesses
system.switch_cpus1.itb.inst_accesses               0                       # ITB inst accesses
system.switch_cpus1.itb.hits                        0                       # DTB hits
system.switch_cpus1.itb.misses                      0                       # DTB misses
system.switch_cpus1.itb.accesses                    0                       # DTB accesses
system.cpu1.workload.num_syscalls                  52                       # Number of system calls
system.switch_cpus1.numCycles               262734489                       # number of cpu cycles simulated
system.switch_cpus1.numWorkItemsStarted             0                       # number of work items this cpu started
system.switch_cpus1.numWorkItemsCompleted            0                       # number of work items this cpu completed
system.switch_cpus1.BPredUnit.lookups        20647535                       # Number of BP lookups
system.switch_cpus1.BPredUnit.condPredicted     16921162                       # Number of conditional branches predicted
system.switch_cpus1.BPredUnit.condIncorrect      2021545                       # Number of conditional branches incorrect
system.switch_cpus1.BPredUnit.BTBLookups      8541285                       # Number of BTB lookups
system.switch_cpus1.BPredUnit.BTBHits         8072690                       # Number of BTB hits
system.switch_cpus1.BPredUnit.BTBCorrect            0                       # Number of correct BTB predictions (this stat may not work properly.
system.switch_cpus1.BPredUnit.usedRAS         2124004                       # Number of times the RAS was used to get a target.
system.switch_cpus1.BPredUnit.RASInCorrect        91089                       # Number of incorrect RAS predictions.
system.switch_cpus1.fetch.icacheStallCycles    197466152                       # Number of cycles fetch is stalled on an Icache miss
system.switch_cpus1.fetch.Insts             117488420                       # Number of instructions fetch has processed
system.switch_cpus1.fetch.Branches           20647535                       # Number of branches that fetch encountered
system.switch_cpus1.fetch.predictedBranches     10196694                       # Number of branches that fetch has predicted taken
system.switch_cpus1.fetch.Cycles             25844372                       # Number of cycles fetch has run and was not squashing or blocked
system.switch_cpus1.fetch.SquashCycles        5728970                       # Number of cycles fetch has spent squashing
system.switch_cpus1.fetch.BlockedCycles      10848848                       # Number of cycles fetch has spent blocked
system.switch_cpus1.fetch.CacheLines         12165892                       # Number of cache lines fetched
system.switch_cpus1.fetch.IcacheSquashes      2009792                       # Number of outstanding Icache misses that were squashed
system.switch_cpus1.fetch.rateDist::samples    237833793                       # Number of instructions fetched each cycle (Total)
system.switch_cpus1.fetch.rateDist::mean     0.604158                       # Number of instructions fetched each cycle (Total)
system.switch_cpus1.fetch.rateDist::stdev     1.950072                       # Number of instructions fetched each cycle (Total)
system.switch_cpus1.fetch.rateDist::underflows            0      0.00%      0.00% # Number of instructions fetched each cycle (Total)
system.switch_cpus1.fetch.rateDist::0       211989421     89.13%     89.13% # Number of instructions fetched each cycle (Total)
system.switch_cpus1.fetch.rateDist::1         2803751      1.18%     90.31% # Number of instructions fetched each cycle (Total)
system.switch_cpus1.fetch.rateDist::2         3223211      1.36%     91.67% # Number of instructions fetched each cycle (Total)
system.switch_cpus1.fetch.rateDist::3         1781927      0.75%     92.42% # Number of instructions fetched each cycle (Total)
system.switch_cpus1.fetch.rateDist::4         2067147      0.87%     93.29% # Number of instructions fetched each cycle (Total)
system.switch_cpus1.fetch.rateDist::5         1125720      0.47%     93.76% # Number of instructions fetched each cycle (Total)
system.switch_cpus1.fetch.rateDist::6          767832      0.32%     94.08% # Number of instructions fetched each cycle (Total)
system.switch_cpus1.fetch.rateDist::7         2009246      0.84%     94.93% # Number of instructions fetched each cycle (Total)
system.switch_cpus1.fetch.rateDist::8        12065538      5.07%    100.00% # Number of instructions fetched each cycle (Total)
system.switch_cpus1.fetch.rateDist::overflows            0      0.00%    100.00% # Number of instructions fetched each cycle (Total)
system.switch_cpus1.fetch.rateDist::min_value            0                       # Number of instructions fetched each cycle (Total)
system.switch_cpus1.fetch.rateDist::max_value            8                       # Number of instructions fetched each cycle (Total)
system.switch_cpus1.fetch.rateDist::total    237833793                       # Number of instructions fetched each cycle (Total)
system.switch_cpus1.fetch.branchRate         0.078587                       # Number of branch fetches per cycle
system.switch_cpus1.fetch.rate               0.447175                       # Number of inst fetches per cycle
system.switch_cpus1.decode.IdleCycles       195863861                       # Number of cycles decode is idle
system.switch_cpus1.decode.BlockedCycles     12480365                       # Number of cycles decode is blocked
system.switch_cpus1.decode.RunCycles         25644121                       # Number of cycles decode is running
system.switch_cpus1.decode.UnblockCycles       189990                       # Number of cycles decode is unblocking
system.switch_cpus1.decode.SquashCycles       3655450                       # Number of cycles decode is squashing
system.switch_cpus1.decode.BranchResolved      3361438                       # Number of times decode resolved a branch
system.switch_cpus1.decode.BranchMispred        18973                       # Number of times decode detected a branch misprediction
system.switch_cpus1.decode.DecodedInsts     143463800                       # Number of instructions handled by decode
system.switch_cpus1.decode.SquashedInsts        95565                       # Number of squashed instructions handled by decode
system.switch_cpus1.rename.SquashCycles       3655450                       # Number of cycles rename is squashing
system.switch_cpus1.rename.IdleCycles       196162095                       # Number of cycles rename is idle
system.switch_cpus1.rename.BlockCycles        3513970                       # Number of cycles rename is blocking
system.switch_cpus1.rename.serializeStallCycles      8120073                       # count of cycles rename stalled for serializing inst
system.switch_cpus1.rename.RunCycles         25547262                       # Number of cycles rename is running
system.switch_cpus1.rename.UnblockCycles       834937                       # Number of cycles rename is unblocking
system.switch_cpus1.rename.RenamedInsts     143382432                       # Number of instructions processed by rename
system.switch_cpus1.rename.ROBFullEvents          259                       # Number of times rename has blocked due to ROB full
system.switch_cpus1.rename.IQFullEvents        216452                       # Number of times rename has blocked due to IQ full
system.switch_cpus1.rename.LSQFullEvents       389234                       # Number of times rename has blocked due to LSQ full
system.switch_cpus1.rename.RenamedOperands    199257331                       # Number of destination operands rename has renamed
system.switch_cpus1.rename.RenameLookups    667708646                       # Number of register rename lookups that rename has made
system.switch_cpus1.rename.int_rename_lookups    667708646                       # Number of integer rename lookups
system.switch_cpus1.rename.CommittedMaps    170293003                       # Number of HB maps that are committed
system.switch_cpus1.rename.UndoneMaps        28964320                       # Number of HB maps that are undone due to squashing
system.switch_cpus1.rename.serializingInsts        37955                       # count of serializing insts renamed
system.switch_cpus1.rename.tempSerializingInsts        21335                       # count of temporary serializing insts renamed
system.switch_cpus1.rename.skidInsts          2243002                       # count of insts added to the skid buffer
system.switch_cpus1.memDep0.insertedLoads     13684545                       # Number of loads inserted to the mem dependence unit.
system.switch_cpus1.memDep0.insertedStores      7468247                       # Number of stores inserted to the mem dependence unit.
system.switch_cpus1.memDep0.conflictingLoads       196483                       # Number of conflicting loads.
system.switch_cpus1.memDep0.conflictingStores      1661055                       # Number of conflicting stores.
system.switch_cpus1.iq.iqInstsAdded         143171632                       # Number of instructions added to the IQ (excludes non-spec)
system.switch_cpus1.iq.iqNonSpecInstsAdded        38047                       # Number of non-speculative instructions added to the IQ
system.switch_cpus1.iq.iqInstsIssued        135370890                       # Number of instructions issued
system.switch_cpus1.iq.iqSquashedInstsIssued       186221                       # Number of squashed instructions issued
system.switch_cpus1.iq.iqSquashedInstsExamined     17809895                       # Number of squashed instructions iterated over during squash; mainly for profiling
system.switch_cpus1.iq.iqSquashedOperandsExamined     41108722                       # Number of squashed operands that are examined and possibly removed from graph
system.switch_cpus1.iq.iqSquashedNonSpecRemoved         4597                       # Number of squashed non-spec instructions that were removed
system.switch_cpus1.iq.issued_per_cycle::samples    237833793                       # Number of insts issued each cycle
system.switch_cpus1.iq.issued_per_cycle::mean     0.569183                       # Number of insts issued each cycle
system.switch_cpus1.iq.issued_per_cycle::stdev     1.259970                       # Number of insts issued each cycle
system.switch_cpus1.iq.issued_per_cycle::underflows            0      0.00%      0.00% # Number of insts issued each cycle
system.switch_cpus1.iq.issued_per_cycle::0    180803858     76.02%     76.02% # Number of insts issued each cycle
system.switch_cpus1.iq.issued_per_cycle::1     22927088      9.64%     85.66% # Number of insts issued each cycle
system.switch_cpus1.iq.issued_per_cycle::2     12322058      5.18%     90.84% # Number of insts issued each cycle
system.switch_cpus1.iq.issued_per_cycle::3      8540933      3.59%     94.43% # Number of insts issued each cycle
system.switch_cpus1.iq.issued_per_cycle::4      7460967      3.14%     97.57% # Number of insts issued each cycle
system.switch_cpus1.iq.issued_per_cycle::5      3826248      1.61%     99.18% # Number of insts issued each cycle
system.switch_cpus1.iq.issued_per_cycle::6       911698      0.38%     99.56% # Number of insts issued each cycle
system.switch_cpus1.iq.issued_per_cycle::7       595953      0.25%     99.81% # Number of insts issued each cycle
system.switch_cpus1.iq.issued_per_cycle::8       444990      0.19%    100.00% # Number of insts issued each cycle
system.switch_cpus1.iq.issued_per_cycle::overflows            0      0.00%    100.00% # Number of insts issued each cycle
system.switch_cpus1.iq.issued_per_cycle::min_value            0                       # Number of insts issued each cycle
system.switch_cpus1.iq.issued_per_cycle::max_value            8                       # Number of insts issued each cycle
system.switch_cpus1.iq.issued_per_cycle::total    237833793                       # Number of insts issued each cycle
system.switch_cpus1.iq.fu_full::No_OpClass            0      0.00%      0.00% # attempts to use FU when none available
system.switch_cpus1.iq.fu_full::IntAlu          33171     11.37%     11.37% # attempts to use FU when none available
system.switch_cpus1.iq.fu_full::IntMult             0      0.00%     11.37% # attempts to use FU when none available
system.switch_cpus1.iq.fu_full::IntDiv              0      0.00%     11.37% # attempts to use FU when none available
system.switch_cpus1.iq.fu_full::FloatAdd            0      0.00%     11.37% # attempts to use FU when none available
system.switch_cpus1.iq.fu_full::FloatCmp            0      0.00%     11.37% # attempts to use FU when none available
system.switch_cpus1.iq.fu_full::FloatCvt            0      0.00%     11.37% # attempts to use FU when none available
system.switch_cpus1.iq.fu_full::FloatMult            0      0.00%     11.37% # attempts to use FU when none available
system.switch_cpus1.iq.fu_full::FloatDiv            0      0.00%     11.37% # attempts to use FU when none available
system.switch_cpus1.iq.fu_full::FloatSqrt            0      0.00%     11.37% # attempts to use FU when none available
system.switch_cpus1.iq.fu_full::SimdAdd             0      0.00%     11.37% # attempts to use FU when none available
system.switch_cpus1.iq.fu_full::SimdAddAcc            0      0.00%     11.37% # attempts to use FU when none available
system.switch_cpus1.iq.fu_full::SimdAlu             0      0.00%     11.37% # attempts to use FU when none available
system.switch_cpus1.iq.fu_full::SimdCmp             0      0.00%     11.37% # attempts to use FU when none available
system.switch_cpus1.iq.fu_full::SimdCvt             0      0.00%     11.37% # attempts to use FU when none available
system.switch_cpus1.iq.fu_full::SimdMisc            0      0.00%     11.37% # attempts to use FU when none available
system.switch_cpus1.iq.fu_full::SimdMult            0      0.00%     11.37% # attempts to use FU when none available
system.switch_cpus1.iq.fu_full::SimdMultAcc            0      0.00%     11.37% # attempts to use FU when none available
system.switch_cpus1.iq.fu_full::SimdShift            0      0.00%     11.37% # attempts to use FU when none available
system.switch_cpus1.iq.fu_full::SimdShiftAcc            0      0.00%     11.37% # attempts to use FU when none available
system.switch_cpus1.iq.fu_full::SimdSqrt            0      0.00%     11.37% # attempts to use FU when none available
system.switch_cpus1.iq.fu_full::SimdFloatAdd            0      0.00%     11.37% # attempts to use FU when none available
system.switch_cpus1.iq.fu_full::SimdFloatAlu            0      0.00%     11.37% # attempts to use FU when none available
system.switch_cpus1.iq.fu_full::SimdFloatCmp            0      0.00%     11.37% # attempts to use FU when none available
system.switch_cpus1.iq.fu_full::SimdFloatCvt            0      0.00%     11.37% # attempts to use FU when none available
system.switch_cpus1.iq.fu_full::SimdFloatDiv            0      0.00%     11.37% # attempts to use FU when none available
system.switch_cpus1.iq.fu_full::SimdFloatMisc            0      0.00%     11.37% # attempts to use FU when none available
system.switch_cpus1.iq.fu_full::SimdFloatMult            0      0.00%     11.37% # attempts to use FU when none available
system.switch_cpus1.iq.fu_full::SimdFloatMultAcc            0      0.00%     11.37% # attempts to use FU when none available
system.switch_cpus1.iq.fu_full::SimdFloatSqrt            0      0.00%     11.37% # attempts to use FU when none available
system.switch_cpus1.iq.fu_full::MemRead        127092     43.57%     54.95% # attempts to use FU when none available
system.switch_cpus1.iq.fu_full::MemWrite       131413     45.05%    100.00% # attempts to use FU when none available
system.switch_cpus1.iq.fu_full::IprAccess            0      0.00%    100.00% # attempts to use FU when none available
system.switch_cpus1.iq.fu_full::InstPrefetch            0      0.00%    100.00% # attempts to use FU when none available
system.switch_cpus1.iq.FU_type_0::No_OpClass            0      0.00%      0.00% # Type of FU issued
system.switch_cpus1.iq.FU_type_0::IntAlu    113305679     83.70%     83.70% # Type of FU issued
system.switch_cpus1.iq.FU_type_0::IntMult      2120243      1.57%     85.27% # Type of FU issued
system.switch_cpus1.iq.FU_type_0::IntDiv            0      0.00%     85.27% # Type of FU issued
system.switch_cpus1.iq.FU_type_0::FloatAdd            0      0.00%     85.27% # Type of FU issued
system.switch_cpus1.iq.FU_type_0::FloatCmp            0      0.00%     85.27% # Type of FU issued
system.switch_cpus1.iq.FU_type_0::FloatCvt            0      0.00%     85.27% # Type of FU issued
system.switch_cpus1.iq.FU_type_0::FloatMult            0      0.00%     85.27% # Type of FU issued
system.switch_cpus1.iq.FU_type_0::FloatDiv            0      0.00%     85.27% # Type of FU issued
system.switch_cpus1.iq.FU_type_0::FloatSqrt            0      0.00%     85.27% # Type of FU issued
system.switch_cpus1.iq.FU_type_0::SimdAdd            0      0.00%     85.27% # Type of FU issued
system.switch_cpus1.iq.FU_type_0::SimdAddAcc            0      0.00%     85.27% # Type of FU issued
system.switch_cpus1.iq.FU_type_0::SimdAlu            0      0.00%     85.27% # Type of FU issued
system.switch_cpus1.iq.FU_type_0::SimdCmp            0      0.00%     85.27% # Type of FU issued
system.switch_cpus1.iq.FU_type_0::SimdCvt            0      0.00%     85.27% # Type of FU issued
system.switch_cpus1.iq.FU_type_0::SimdMisc            0      0.00%     85.27% # Type of FU issued
[...]
system.cpu7.icache.ReadReq_avg_miss_latency::total 768506.968254                       # average ReadReq miss latency
system.cpu7.icache.demand_avg_miss_latency::switch_cpus7.inst 768506.968254                       # average overall miss latency
system.cpu7.icache.demand_avg_miss_latency::total 768506.968254                       # average overall miss latency
system.cpu7.icache.overall_avg_miss_latency::switch_cpus7.inst 768506.968254                       # average overall miss latency
system.cpu7.icache.overall_avg_miss_latency::total 768506.968254                       # average overall miss latency
system.cpu7.icache.blocked_cycles::no_mshrs            0                       # number of cycles access was blocked
system.cpu7.icache.blocked_cycles::no_targets            0                       # number of cycles access was blocked
system.cpu7.icache.blocked::no_mshrs                0                       # number of cycles access was blocked
system.cpu7.icache.blocked::no_targets              0                       # number of cycles access was blocked
system.cpu7.icache.avg_blocked_cycles::no_mshrs          nan                       # average number of cycles each access was blocked
system.cpu7.icache.avg_blocked_cycles::no_targets          nan                       # average number of cycles each access was blocked
system.cpu7.icache.fast_writes                      0                       # number of fast writes performed
system.cpu7.icache.cache_copies                     0                       # number of cache copies performed
system.cpu7.icache.ReadReq_mshr_hits::switch_cpus7.inst           21                       # number of ReadReq MSHR hits
system.cpu7.icache.ReadReq_mshr_hits::total           21                       # number of ReadReq MSHR hits
system.cpu7.icache.demand_mshr_hits::switch_cpus7.inst           21                       # number of demand (read+write) MSHR hits
system.cpu7.icache.demand_mshr_hits::total           21                       # number of demand (read+write) MSHR hits
system.cpu7.icache.overall_mshr_hits::switch_cpus7.inst           21                       # number of overall MSHR hits
system.cpu7.icache.overall_mshr_hits::total           21                       # number of overall MSHR hits
system.cpu7.icache.ReadReq_mshr_misses::switch_cpus7.inst           42                       # number of ReadReq MSHR misses
system.cpu7.icache.ReadReq_mshr_misses::total           42                       # number of ReadReq MSHR misses
system.cpu7.icache.demand_mshr_misses::switch_cpus7.inst           42                       # number of demand (read+write) MSHR misses
system.cpu7.icache.demand_mshr_misses::total           42                       # number of demand (read+write) MSHR misses
system.cpu7.icache.overall_mshr_misses::switch_cpus7.inst           42                       # number of overall MSHR misses
system.cpu7.icache.overall_mshr_misses::total           42                       # number of overall MSHR misses
system.cpu7.icache.ReadReq_mshr_miss_latency::switch_cpus7.inst     33550826                       # number of ReadReq MSHR miss cycles
system.cpu7.icache.ReadReq_mshr_miss_latency::total     33550826                       # number of ReadReq MSHR miss cycles
system.cpu7.icache.demand_mshr_miss_latency::switch_cpus7.inst     33550826                       # number of demand (read+write) MSHR miss cycles
system.cpu7.icache.demand_mshr_miss_latency::total     33550826                       # number of demand (read+write) MSHR miss cycles
system.cpu7.icache.overall_mshr_miss_latency::switch_cpus7.inst     33550826                       # number of overall MSHR miss cycles
system.cpu7.icache.overall_mshr_miss_latency::total     33550826                       # number of overall MSHR miss cycles
system.cpu7.icache.ReadReq_mshr_miss_rate::switch_cpus7.inst     0.000004                       # mshr miss rate for ReadReq accesses
system.cpu7.icache.ReadReq_mshr_miss_rate::total     0.000004                       # mshr miss rate for ReadReq accesses
system.cpu7.icache.demand_mshr_miss_rate::switch_cpus7.inst     0.000004                       # mshr miss rate for demand accesses
system.cpu7.icache.demand_mshr_miss_rate::total     0.000004                       # mshr miss rate for demand accesses
system.cpu7.icache.overall_mshr_miss_rate::switch_cpus7.inst     0.000004                       # mshr miss rate for overall accesses
system.cpu7.icache.overall_mshr_miss_rate::total     0.000004                       # mshr miss rate for overall accesses
system.cpu7.icache.ReadReq_avg_mshr_miss_latency::switch_cpus7.inst 798829.190476                       # average ReadReq mshr miss latency
system.cpu7.icache.ReadReq_avg_mshr_miss_latency::total 798829.190476                       # average ReadReq mshr miss latency
system.cpu7.icache.demand_avg_mshr_miss_latency::switch_cpus7.inst 798829.190476                       # average overall mshr miss latency
system.cpu7.icache.demand_avg_mshr_miss_latency::total 798829.190476                       # average overall mshr miss latency
system.cpu7.icache.overall_avg_mshr_miss_latency::switch_cpus7.inst 798829.190476                       # average overall mshr miss latency
system.cpu7.icache.overall_avg_mshr_miss_latency::total 798829.190476                       # average overall mshr miss latency
system.cpu7.icache.no_allocate_misses               0                       # Number of misses that were no-allocate
system.cpu7.dcache.replacements                 80570                       # number of replacements
system.cpu7.dcache.tagsinuse                      256                       # Cycle average of tags in use
system.cpu7.dcache.total_refs               449776597                       # Total number of references to valid blocks.
system.cpu7.dcache.sampled_refs                 80826                       # Sample count of references to valid blocks.
system.cpu7.dcache.avg_refs               5564.751404                       # Average number of references to valid blocks.
system.cpu7.dcache.warmup_cycle                     0                       # Cycle when the warmup percentage was hit.
system.cpu7.dcache.occ_blocks::switch_cpus7.data   111.907647                       # Average occupied blocks per requestor
system.cpu7.dcache.occ_blocks::cpu7.data   144.092353                       # Average occupied blocks per requestor
system.cpu7.dcache.occ_percent::switch_cpus7.data     0.437139                       # Average percentage of cache occupancy
system.cpu7.dcache.occ_percent::cpu7.data     0.562861                       # Average percentage of cache occupancy
system.cpu7.dcache.occ_percent::total               1                       # Average percentage of cache occupancy
system.cpu7.dcache.ReadReq_hits::switch_cpus7.data     31154081                       # number of ReadReq hits
system.cpu7.dcache.ReadReq_hits::total       31154081                       # number of ReadReq hits
system.cpu7.dcache.WriteReq_hits::switch_cpus7.data     17061604                       # number of WriteReq hits
system.cpu7.dcache.WriteReq_hits::total      17061604                       # number of WriteReq hits
system.cpu7.dcache.LoadLockedReq_hits::switch_cpus7.data         8344                       # number of LoadLockedReq hits
system.cpu7.dcache.LoadLockedReq_hits::total         8344                       # number of LoadLockedReq hits
system.cpu7.dcache.StoreCondReq_hits::switch_cpus7.data         8324                       # number of StoreCondReq hits
system.cpu7.dcache.StoreCondReq_hits::total         8324                       # number of StoreCondReq hits
system.cpu7.dcache.demand_hits::switch_cpus7.data     48215685                       # number of demand (read+write) hits
system.cpu7.dcache.demand_hits::total        48215685                       # number of demand (read+write) hits
system.cpu7.dcache.overall_hits::switch_cpus7.data     48215685                       # number of overall hits
system.cpu7.dcache.overall_hits::total       48215685                       # number of overall hits
system.cpu7.dcache.ReadReq_misses::switch_cpus7.data       290108                       # number of ReadReq misses
system.cpu7.dcache.ReadReq_misses::total       290108                       # number of ReadReq misses
system.cpu7.dcache.WriteReq_misses::switch_cpus7.data          274                       # number of WriteReq misses
system.cpu7.dcache.WriteReq_misses::total          274                       # number of WriteReq misses
system.cpu7.dcache.demand_misses::switch_cpus7.data       290382                       # number of demand (read+write) misses
system.cpu7.dcache.demand_misses::total        290382                       # number of demand (read+write) misses
system.cpu7.dcache.overall_misses::switch_cpus7.data       290382                       # number of overall misses
system.cpu7.dcache.overall_misses::total       290382                       # number of overall misses
system.cpu7.dcache.ReadReq_miss_latency::switch_cpus7.data  71651184994                       # number of ReadReq miss cycles
system.cpu7.dcache.ReadReq_miss_latency::total  71651184994                       # number of ReadReq miss cycles
system.cpu7.dcache.WriteReq_miss_latency::switch_cpus7.data     25610922                       # number of WriteReq miss cycles
system.cpu7.dcache.WriteReq_miss_latency::total     25610922                       # number of WriteReq miss cycles
system.cpu7.dcache.demand_miss_latency::switch_cpus7.data  71676795916                       # number of demand (read+write) miss cycles
system.cpu7.dcache.demand_miss_latency::total  71676795916                       # number of demand (read+write) miss cycles
system.cpu7.dcache.overall_miss_latency::switch_cpus7.data  71676795916                       # number of overall miss cycles
system.cpu7.dcache.overall_miss_latency::total  71676795916                       # number of overall miss cycles
system.cpu7.dcache.ReadReq_accesses::switch_cpus7.data     31444189                       # number of ReadReq accesses(hits+misses)
system.cpu7.dcache.ReadReq_accesses::total     31444189                       # number of ReadReq accesses(hits+misses)
system.cpu7.dcache.WriteReq_accesses::switch_cpus7.data     17061878                       # number of WriteReq accesses(hits+misses)
system.cpu7.dcache.WriteReq_accesses::total     17061878                       # number of WriteReq accesses(hits+misses)
system.cpu7.dcache.LoadLockedReq_accesses::switch_cpus7.data         8344                       # number of LoadLockedReq accesses(hits+misses)
system.cpu7.dcache.LoadLockedReq_accesses::total         8344                       # number of LoadLockedReq accesses(hits+misses)
system.cpu7.dcache.StoreCondReq_accesses::switch_cpus7.data         8324                       # number of StoreCondReq accesses(hits+misses)
system.cpu7.dcache.StoreCondReq_accesses::total         8324                       # number of StoreCondReq accesses(hits+misses)
system.cpu7.dcache.demand_accesses::switch_cpus7.data     48506067                       # number of demand (read+write) accesses
system.cpu7.dcache.demand_accesses::total     48506067                       # number of demand (read+write) accesses
system.cpu7.dcache.overall_accesses::switch_cpus7.data     48506067                       # number of overall (read+write) accesses
system.cpu7.dcache.overall_accesses::total     48506067                       # number of overall (read+write) accesses
system.cpu7.dcache.ReadReq_miss_rate::switch_cpus7.data     0.009226                       # miss rate for ReadReq accesses
system.cpu7.dcache.ReadReq_miss_rate::total     0.009226                       # miss rate for ReadReq accesses
system.cpu7.dcache.WriteReq_miss_rate::switch_cpus7.data     0.000016                       # miss rate for WriteReq accesses
system.cpu7.dcache.WriteReq_miss_rate::total     0.000016                       # miss rate for WriteReq accesses
system.cpu7.dcache.demand_miss_rate::switch_cpus7.data     0.005987                       # miss rate for demand accesses
system.cpu7.dcache.demand_miss_rate::total     0.005987                       # miss rate for demand accesses
system.cpu7.dcache.overall_miss_rate::switch_cpus7.data     0.005987                       # miss rate for overall accesses
system.cpu7.dcache.overall_miss_rate::total     0.005987                       # miss rate for overall accesses
system.cpu7.dcache.ReadReq_avg_miss_latency::switch_cpus7.data 246981.072545                       # average ReadReq miss latency
system.cpu7.dcache.ReadReq_avg_miss_latency::total 246981.072545                       # average ReadReq miss latency
system.cpu7.dcache.WriteReq_avg_miss_latency::switch_cpus7.data 93470.518248                       # average WriteReq miss latency
system.cpu7.dcache.WriteReq_avg_miss_latency::total 93470.518248                       # average WriteReq miss latency
system.cpu7.dcache.demand_avg_miss_latency::switch_cpus7.data 246836.222342                       # average overall miss latency
system.cpu7.dcache.demand_avg_miss_latency::total 246836.222342                       # average overall miss latency
system.cpu7.dcache.overall_avg_miss_latency::switch_cpus7.data 246836.222342                       # average overall miss latency
system.cpu7.dcache.overall_avg_miss_latency::total 246836.222342                       # average overall miss latency
system.cpu7.dcache.blocked_cycles::no_mshrs            0                       # number of cycles access was blocked
system.cpu7.dcache.blocked_cycles::no_targets            0                       # number of cycles access was blocked
system.cpu7.dcache.blocked::no_mshrs                0                       # number of cycles access was blocked
system.cpu7.dcache.blocked::no_targets              0                       # number of cycles access was blocked
system.cpu7.dcache.avg_blocked_cycles::no_mshrs          nan                       # average number of cycles each access was blocked
system.cpu7.dcache.avg_blocked_cycles::no_targets          nan                       # average number of cycles each access was blocked
system.cpu7.dcache.fast_writes                      0                       # number of fast writes performed
system.cpu7.dcache.cache_copies                     0                       # number of cache copies performed
system.cpu7.dcache.writebacks::writebacks        21328                       # number of writebacks
system.cpu7.dcache.writebacks::total            21328                       # number of writebacks
system.cpu7.dcache.ReadReq_mshr_hits::switch_cpus7.data       209616                       # number of ReadReq MSHR hits
system.cpu7.dcache.ReadReq_mshr_hits::total       209616                       # number of ReadReq MSHR hits
system.cpu7.dcache.WriteReq_mshr_hits::switch_cpus7.data          196                       # number of WriteReq MSHR hits
system.cpu7.dcache.WriteReq_mshr_hits::total          196                       # number of WriteReq MSHR hits
system.cpu7.dcache.demand_mshr_hits::switch_cpus7.data       209812                       # number of demand (read+write) MSHR hits
system.cpu7.dcache.demand_mshr_hits::total       209812                       # number of demand (read+write) MSHR hits
system.cpu7.dcache.overall_mshr_hits::switch_cpus7.data       209812                       # number of overall MSHR hits
system.cpu7.dcache.overall_mshr_hits::total       209812                       # number of overall MSHR hits
system.cpu7.dcache.ReadReq_mshr_misses::switch_cpus7.data        80492                       # number of ReadReq MSHR misses
system.cpu7.dcache.ReadReq_mshr_misses::total        80492                       # number of ReadReq MSHR misses
system.cpu7.dcache.WriteReq_mshr_misses::switch_cpus7.data           78                       # number of WriteReq MSHR misses
system.cpu7.dcache.WriteReq_mshr_misses::total           78                       # number of WriteReq MSHR misses
system.cpu7.dcache.demand_mshr_misses::switch_cpus7.data        80570                       # number of demand (read+write) MSHR misses
system.cpu7.dcache.demand_mshr_misses::total        80570                       # number of demand (read+write) MSHR misses
system.cpu7.dcache.overall_mshr_misses::switch_cpus7.data        80570                       # number of overall MSHR misses
system.cpu7.dcache.overall_mshr_misses::total        80570                       # number of overall MSHR misses
system.cpu7.dcache.ReadReq_mshr_miss_latency::switch_cpus7.data  18398108961                       # number of ReadReq MSHR miss cycles
system.cpu7.dcache.ReadReq_mshr_miss_latency::total  18398108961                       # number of ReadReq MSHR miss cycles
system.cpu7.dcache.WriteReq_mshr_miss_latency::switch_cpus7.data      5397309                       # number of WriteReq MSHR miss cycles
system.cpu7.dcache.WriteReq_mshr_miss_latency::total      5397309                       # number of WriteReq MSHR miss cycles
system.cpu7.dcache.demand_mshr_miss_latency::switch_cpus7.data  18403506270                       # number of demand (read+write) MSHR miss cycles
system.cpu7.dcache.demand_mshr_miss_latency::total  18403506270                       # number of demand (read+write) MSHR miss cycles
system.cpu7.dcache.overall_mshr_miss_latency::switch_cpus7.data  18403506270                       # number of overall MSHR miss cycles
system.cpu7.dcache.overall_mshr_miss_latency::total  18403506270                       # number of overall MSHR miss cycles
system.cpu7.dcache.ReadReq_mshr_miss_rate::switch_cpus7.data     0.002560                       # mshr miss rate for ReadReq accesses
system.cpu7.dcache.ReadReq_mshr_miss_rate::total     0.002560                       # mshr miss rate for ReadReq accesses
system.cpu7.dcache.WriteReq_mshr_miss_rate::switch_cpus7.data     0.000005                       # mshr miss rate for WriteReq accesses
system.cpu7.dcache.WriteReq_mshr_miss_rate::total     0.000005                       # mshr miss rate for WriteReq accesses
system.cpu7.dcache.demand_mshr_miss_rate::switch_cpus7.data     0.001661                       # mshr miss rate for demand accesses
system.cpu7.dcache.demand_mshr_miss_rate::total     0.001661                       # mshr miss rate for demand accesses
system.cpu7.dcache.overall_mshr_miss_rate::switch_cpus7.data     0.001661                       # mshr miss rate for overall accesses
system.cpu7.dcache.overall_mshr_miss_rate::total     0.001661                       # mshr miss rate for overall accesses
system.cpu7.dcache.ReadReq_avg_mshr_miss_latency::switch_cpus7.data 228570.652500                       # average ReadReq mshr miss latency
system.cpu7.dcache.ReadReq_avg_mshr_miss_latency::total 228570.652500                       # average ReadReq mshr miss latency
system.cpu7.dcache.WriteReq_avg_mshr_miss_latency::switch_cpus7.data 69196.269231                       # average WriteReq mshr miss latency
system.cpu7.dcache.WriteReq_avg_mshr_miss_latency::total 69196.269231                       # average WriteReq mshr miss latency
system.cpu7.dcache.demand_avg_mshr_miss_latency::switch_cpus7.data 228416.361797                       # average overall mshr miss latency
system.cpu7.dcache.demand_avg_mshr_miss_latency::total 228416.361797                       # average overall mshr miss latency
system.cpu7.dcache.overall_avg_mshr_miss_latency::switch_cpus7.data 228416.361797                       # average overall mshr miss latency
system.cpu7.dcache.overall_avg_mshr_miss_latency::total 228416.361797                       # average overall mshr miss latency
system.cpu7.dcache.no_allocate_misses               0                       # Number of misses that were no-allocate

---------- End Simulation Statistics   ----------
