
---------- Begin Simulation Statistics ----------
sim_seconds                                  0.001101                       # Number of seconds simulated
sim_ticks                                  1101244041                       # Number of ticks simulated
final_tick                               398684967186                       # Number of ticks from beginning of simulation (restored from checkpoints and never reset)
sim_freq                                 1000000000000                       # Frequency of simulated ticks
host_inst_rate                                 403186                       # Simulator instruction rate (inst/s)
host_op_rate                                   524900                       # Simulator op (including micro ops) rate (op/s)
host_tick_rate                                  37843                       # Simulator tick rate (ticks/s)
host_mem_usage                               67618484                       # Number of bytes of host memory used
host_seconds                                 29100.21                       # Real time elapsed on the host
sim_insts                                 11732808840                       # Number of instructions simulated
sim_ops                                   15274705665                       # Number of ops (including micro ops) simulated
system.physmem.bytes_read::switch_cpus00.inst         1664                       # Number of bytes read from this memory
system.physmem.bytes_read::switch_cpus00.data        75648                       # Number of bytes read from this memory
system.physmem.bytes_read::switch_cpus01.inst         2688                       # Number of bytes read from this memory
system.physmem.bytes_read::switch_cpus01.data        13056                       # Number of bytes read from this memory
system.physmem.bytes_read::switch_cpus02.inst         1792                       # Number of bytes read from this memory
system.physmem.bytes_read::switch_cpus02.data        50048                       # Number of bytes read from this memory
system.physmem.bytes_read::switch_cpus03.inst         1792                       # Number of bytes read from this memory
system.physmem.bytes_read::switch_cpus03.data        21632                       # Number of bytes read from this memory
system.physmem.bytes_read::switch_cpus04.inst         2816                       # Number of bytes read from this memory
system.physmem.bytes_read::switch_cpus04.data        14208                       # Number of bytes read from this memory
system.physmem.bytes_read::switch_cpus05.inst         3456                       # Number of bytes read from this memory
system.physmem.bytes_read::switch_cpus05.data        27392                       # Number of bytes read from this memory
system.physmem.bytes_read::switch_cpus06.inst         3456                       # Number of bytes read from this memory
system.physmem.bytes_read::switch_cpus06.data        21120                       # Number of bytes read from this memory
system.physmem.bytes_read::switch_cpus07.inst         2816                       # Number of bytes read from this memory
system.physmem.bytes_read::switch_cpus07.data        13696                       # Number of bytes read from this memory
system.physmem.bytes_read::switch_cpus08.inst         2816                       # Number of bytes read from this memory
system.physmem.bytes_read::switch_cpus08.data        15104                       # Number of bytes read from this memory
system.physmem.bytes_read::switch_cpus09.inst         1664                       # Number of bytes read from this memory
system.physmem.bytes_read::switch_cpus09.data        77952                       # Number of bytes read from this memory
system.physmem.bytes_read::switch_cpus10.inst         2816                       # Number of bytes read from this memory
system.physmem.bytes_read::switch_cpus10.data        14080                       # Number of bytes read from this memory
system.physmem.bytes_read::switch_cpus11.inst         1920                       # Number of bytes read from this memory
system.physmem.bytes_read::switch_cpus11.data        51584                       # Number of bytes read from this memory
system.physmem.bytes_read::switch_cpus12.inst         3328                       # Number of bytes read from this memory
system.physmem.bytes_read::switch_cpus12.data        27776                       # Number of bytes read from this memory
system.physmem.bytes_read::switch_cpus13.inst         1792                       # Number of bytes read from this memory
system.physmem.bytes_read::switch_cpus13.data        51072                       # Number of bytes read from this memory
system.physmem.bytes_read::switch_cpus14.inst         1664                       # Number of bytes read from this memory
system.physmem.bytes_read::switch_cpus14.data        75008                       # Number of bytes read from this memory
system.physmem.bytes_read::switch_cpus15.inst         3328                       # Number of bytes read from this memory
system.physmem.bytes_read::switch_cpus15.data        27648                       # Number of bytes read from this memory
system.physmem.bytes_read::total               616832                       # Number of bytes read from this memory
system.physmem.bytes_inst_read::switch_cpus00.inst         1664                       # Number of instructions bytes read from this memory
system.physmem.bytes_inst_read::switch_cpus01.inst         2688                       # Number of instructions bytes read from this memory
system.physmem.bytes_inst_read::switch_cpus02.inst         1792                       # Number of instructions bytes read from this memory
system.physmem.bytes_inst_read::switch_cpus03.inst         1792                       # Number of instructions bytes read from this memory
system.physmem.bytes_inst_read::switch_cpus04.inst         2816                       # Number of instructions bytes read from this memory
system.physmem.bytes_inst_read::switch_cpus05.inst         3456                       # Number of instructions bytes read from this memory
system.physmem.bytes_inst_read::switch_cpus06.inst         3456                       # Number of instructions bytes read from this memory
system.physmem.bytes_inst_read::switch_cpus07.inst         2816                       # Number of instructions bytes read from this memory
system.physmem.bytes_inst_read::switch_cpus08.inst         2816                       # Number of instructions bytes read from this memory
system.physmem.bytes_inst_read::switch_cpus09.inst         1664                       # Number of instructions bytes read from this memory
system.physmem.bytes_inst_read::switch_cpus10.inst         2816                       # Number of instructions bytes read from this memory
system.physmem.bytes_inst_read::switch_cpus11.inst         1920                       # Number of instructions bytes read from this memory
system.physmem.bytes_inst_read::switch_cpus12.inst         3328                       # Number of instructions bytes read from this memory
system.physmem.bytes_inst_read::switch_cpus13.inst         1792                       # Number of instructions bytes read from this memory
system.physmem.bytes_inst_read::switch_cpus14.inst         1664                       # Number of instructions bytes read from this memory
system.physmem.bytes_inst_read::switch_cpus15.inst         3328                       # Number of instructions bytes read from this memory
system.physmem.bytes_inst_read::total           39808                       # Number of instructions bytes read from this memory
system.physmem.bytes_written::writebacks       258688                       # Number of bytes written to this memory
system.physmem.bytes_written::total            258688                       # Number of bytes written to this memory
system.physmem.num_reads::switch_cpus00.inst           13                       # Number of read requests responded to by this memory
system.physmem.num_reads::switch_cpus00.data          591                       # Number of read requests responded to by this memory
system.physmem.num_reads::switch_cpus01.inst           21                       # Number of read requests responded to by this memory
system.physmem.num_reads::switch_cpus01.data          102                       # Number of read requests responded to by this memory
system.physmem.num_reads::switch_cpus02.inst           14                       # Number of read requests responded to by this memory
system.physmem.num_reads::switch_cpus02.data          391                       # Number of read requests responded to by this memory
system.physmem.num_reads::switch_cpus03.inst           14                       # Number of read requests responded to by this memory
system.physmem.num_reads::switch_cpus03.data          169                       # Number of read requests responded to by this memory
system.physmem.num_reads::switch_cpus04.inst           22                       # Number of read requests responded to by this memory
system.physmem.num_reads::switch_cpus04.data          111                       # Number of read requests responded to by this memory
system.physmem.num_reads::switch_cpus05.inst           27                       # Number of read requests responded to by this memory
system.physmem.num_reads::switch_cpus05.data          214                       # Number of read requests responded to by this memory
system.physmem.num_reads::switch_cpus06.inst           27                       # Number of read requests responded to by this memory
system.physmem.num_reads::switch_cpus06.data          165                       # Number of read requests responded to by this memory
system.physmem.num_reads::switch_cpus07.inst           22                       # Number of read requests responded to by this memory
system.physmem.num_reads::switch_cpus07.data          107                       # Number of read requests responded to by this memory
system.physmem.num_reads::switch_cpus08.inst           22                       # Number of read requests responded to by this memory
system.physmem.num_reads::switch_cpus08.data          118                       # Number of read requests responded to by this memory
system.physmem.num_reads::switch_cpus09.inst           13                       # Number of read requests responded to by this memory
system.physmem.num_reads::switch_cpus09.data          609                       # Number of read requests responded to by this memory
system.physmem.num_reads::switch_cpus10.inst           22                       # Number of read requests responded to by this memory
system.physmem.num_reads::switch_cpus10.data          110                       # Number of read requests responded to by this memory
system.physmem.num_reads::switch_cpus11.inst           15                       # Number of read requests responded to by this memory
system.physmem.num_reads::switch_cpus11.data          403                       # Number of read requests responded to by this memory
system.physmem.num_reads::switch_cpus12.inst           26                       # Number of read requests responded to by this memory
system.physmem.num_reads::switch_cpus12.data          217                       # Number of read requests responded to by this memory
system.physmem.num_reads::switch_cpus13.inst           14                       # Number of read requests responded to by this memory
system.physmem.num_reads::switch_cpus13.data          399                       # Number of read requests responded to by this memory
system.physmem.num_reads::switch_cpus14.inst           13                       # Number of read requests responded to by this memory
system.physmem.num_reads::switch_cpus14.data          586                       # Number of read requests responded to by this memory
system.physmem.num_reads::switch_cpus15.inst           26                       # Number of read requests responded to by this memory
system.physmem.num_reads::switch_cpus15.data          216                       # Number of read requests responded to by this memory
system.physmem.num_reads::total                  4819                       # Number of read requests responded to by this memory
system.physmem.num_writes::writebacks            2021                       # Number of write requests responded to by this memory
system.physmem.num_writes::functional               0                       # Number of write requests responded to by this memory
system.physmem.num_writes::interrupt                0                       # Number of write requests responded to by this memory
system.physmem.num_writes::switch_cpus00.dtb.walker            0                       # Number of write requests responded to by this memory
system.physmem.num_writes::switch_cpus00.itb.walker            0                       # Number of write requests responded to by this memory
system.physmem.num_writes::switch_cpus00.inst            0                       # Number of write requests responded to by this memory
system.physmem.num_writes::switch_cpus00.data            0                       # Number of write requests responded to by this memory
system.physmem.num_writes::switch_cpus01.dtb.walker            0                       # Number of write requests responded to by this memory
system.physmem.num_writes::switch_cpus01.itb.walker            0                       # Number of write requests responded to by this memory
system.physmem.num_writes::switch_cpus01.inst            0                       # Number of write requests responded to by this memory
system.physmem.num_writes::switch_cpus01.data            0                       # Number of write requests responded to by this memory
system.physmem.num_writes::switch_cpus02.dtb.walker            0                       # Number of write requests responded to by this memory
system.physmem.num_writes::switch_cpus02.itb.walker            0                       # Number of write requests responded to by this memory
system.physmem.num_writes::switch_cpus02.inst            0                       # Number of write requests responded to by this memory
system.physmem.num_writes::switch_cpus02.data            0                       # Number of write requests responded to by this memory
system.physmem.num_writes::switch_cpus03.dtb.walker            0                       # Number of write requests responded to by this memory
system.physmem.num_writes::switch_cpus03.itb.walker            0                       # Number of write requests responded to by this memory
system.physmem.num_writes::switch_cpus03.inst            0                       # Number of write requests responded to by this memory
system.physmem.num_writes::switch_cpus03.data            0                       # Number of write requests responded to by this memory
system.physmem.num_writes::switch_cpus04.dtb.walker            0                       # Number of write requests responded to by this memory
system.physmem.num_writes::switch_cpus04.itb.walker            0                       # Number of write requests responded to by this memory
system.physmem.num_writes::switch_cpus04.inst            0                       # Number of write requests responded to by this memory
system.physmem.num_writes::switch_cpus04.data            0                       # Number of write requests responded to by this memory
system.physmem.num_writes::switch_cpus05.dtb.walker            0                       # Number of write requests responded to by this memory
system.physmem.num_writes::switch_cpus05.itb.walker            0                       # Number of write requests responded to by this memory
system.physmem.num_writes::switch_cpus05.inst            0                       # Number of write requests responded to by this memory
system.physmem.num_writes::switch_cpus05.data            0                       # Number of write requests responded to by this memory
system.physmem.num_writes::switch_cpus06.dtb.walker            0                       # Number of write requests responded to by this memory
system.physmem.num_writes::switch_cpus06.itb.walker            0                       # Number of write requests responded to by this memory
system.physmem.num_writes::switch_cpus06.inst            0                       # Number of write requests responded to by this memory
system.physmem.num_writes::switch_cpus06.data            0                       # Number of write requests responded to by this memory
system.physmem.num_writes::switch_cpus07.dtb.walker            0                       # Number of write requests responded to by this memory
system.physmem.num_writes::switch_cpus07.itb.walker            0                       # Number of write requests responded to by this memory
system.physmem.num_writes::switch_cpus07.inst            0                       # Number of write requests responded to by this memory
system.physmem.num_writes::switch_cpus07.data            0                       # Number of write requests responded to by this memory
system.physmem.num_writes::switch_cpus08.dtb.walker            0                       # Number of write requests responded to by this memory
system.physmem.num_writes::switch_cpus08.itb.walker            0                       # Number of write requests responded to by this memory
system.physmem.num_writes::switch_cpus08.inst            0                       # Number of write requests responded to by this memory
system.physmem.num_writes::switch_cpus08.data            0                       # Number of write requests responded to by this memory
system.physmem.num_writes::switch_cpus09.dtb.walker            0                       # Number of write requests responded to by this memory
system.physmem.num_writes::switch_cpus09.itb.walker            0                       # Number of write requests responded to by this memory
system.physmem.num_writes::switch_cpus09.inst            0                       # Number of write requests responded to by this memory
system.physmem.num_writes::switch_cpus09.data            0                       # Number of write requests responded to by this memory
system.physmem.num_writes::switch_cpus10.dtb.walker            0                       # Number of write requests responded to by this memory
system.physmem.num_writes::switch_cpus10.itb.walker            0                       # Number of write requests responded to by this memory
system.physmem.num_writes::switch_cpus10.inst            0                       # Number of write requests responded to by this memory
system.physmem.num_writes::switch_cpus10.data            0                       # Number of write requests responded to by this memory
system.physmem.num_writes::switch_cpus11.dtb.walker            0                       # Number of write requests responded to by this memory
system.physmem.num_writes::switch_cpus11.itb.walker            0                       # Number of write requests responded to by this memory
system.physmem.num_writes::switch_cpus11.inst            0                       # Number of write requests responded to by this memory
system.physmem.num_writes::switch_cpus11.data            0                       # Number of write requests responded to by this memory
system.physmem.num_writes::switch_cpus12.dtb.walker            0                       # Number of write requests responded to by this memory
system.physmem.num_writes::switch_cpus12.itb.walker            0                       # Number of write requests responded to by this memory
system.physmem.num_writes::switch_cpus12.inst            0                       # Number of write requests responded to by this memory
system.physmem.num_writes::switch_cpus12.data            0                       # Number of write requests responded to by this memory
system.physmem.num_writes::switch_cpus13.dtb.walker            0                       # Number of write requests responded to by this memory
system.physmem.num_writes::switch_cpus13.itb.walker            0                       # Number of write requests responded to by this memory
system.physmem.num_writes::switch_cpus13.inst            0                       # Number of write requests responded to by this memory
system.physmem.num_writes::switch_cpus13.data            0                       # Number of write requests responded to by this memory
system.physmem.num_writes::switch_cpus14.dtb.walker            0                       # Number of write requests responded to by this memory
system.physmem.num_writes::switch_cpus14.itb.walker            0                       # Number of write requests responded to by this memory
system.physmem.num_writes::switch_cpus14.inst            0                       # Number of write requests responded to by this memory
system.physmem.num_writes::switch_cpus14.data            0                       # Number of write requests responded to by this memory
system.physmem.num_writes::switch_cpus15.dtb.walker            0                       # Number of write requests responded to by this memory
system.physmem.num_writes::switch_cpus15.itb.walker            0                       # Number of write requests responded to by this memory
system.physmem.num_writes::switch_cpus15.inst            0                       # Number of write requests responded to by this memory
system.physmem.num_writes::switch_cpus15.data            0                       # Number of write requests responded to by this memory
system.physmem.num_writes::cpu00.dtb.walker            0                       # Number of write requests responded to by this memory
system.physmem.num_writes::cpu00.itb.walker            0                       # Number of write requests responded to by this memory
system.physmem.num_writes::cpu00.inst               0                       # Number of write requests responded to by this memory
system.physmem.num_writes::cpu00.data               0                       # Number of write requests responded to by this memory
system.physmem.num_writes::cpu01.dtb.walker            0                       # Number of write requests responded to by this memory
system.physmem.num_writes::cpu01.itb.walker            0                       # Number of write requests responded to by this memory
system.physmem.num_writes::cpu01.inst               0                       # Number of write requests responded to by this memory
system.physmem.num_writes::cpu01.data               0                       # Number of write requests responded to by this memory
system.physmem.num_writes::cpu02.dtb.walker            0                       # Number of write requests responded to by this memory
system.physmem.num_writes::cpu02.itb.walker            0                       # Number of write requests responded to by this memory
system.physmem.num_writes::cpu02.inst               0                       # Number of write requests responded to by this memory
system.physmem.num_writes::cpu02.data               0                       # Number of write requests responded to by this memory
system.physmem.num_writes::cpu03.dtb.walker            0                       # Number of write requests responded to by this memory
system.physmem.num_writes::cpu03.itb.walker            0                       # Number of write requests responded to by this memory
system.physmem.num_writes::cpu03.inst               0                       # Number of write requests responded to by this memory
system.physmem.num_writes::cpu03.data               0                       # Number of write requests responded to by this memory
system.physmem.num_writes::cpu04.dtb.walker            0                       # Number of write requests responded to by this memory
system.physmem.num_writes::cpu04.itb.walker            0                       # Number of write requests responded to by this memory
system.physmem.num_writes::cpu04.inst               0                       # Number of write requests responded to by this memory
system.physmem.num_writes::cpu04.data               0                       # Number of write requests responded to by this memory
system.physmem.num_writes::cpu05.dtb.walker            0                       # Number of write requests responded to by this memory
system.physmem.num_writes::cpu05.itb.walker            0                       # Number of write requests responded to by this memory
system.physmem.num_writes::cpu05.inst               0                       # Number of write requests responded to by this memory
system.physmem.num_writes::cpu05.data               0                       # Number of write requests responded to by this memory
system.physmem.num_writes::cpu06.dtb.walker            0                       # Number of write requests responded to by this memory
system.physmem.num_writes::cpu06.itb.walker            0                       # Number of write requests responded to by this memory
system.physmem.num_writes::cpu06.inst               0                       # Number of write requests responded to by this memory
system.physmem.num_writes::cpu06.data               0                       # Number of write requests responded to by this memory
system.physmem.num_writes::cpu07.dtb.walker            0                       # Number of write requests responded to by this memory
system.physmem.num_writes::cpu07.itb.walker            0                       # Number of write requests responded to by this memory
system.physmem.num_writes::cpu07.inst               0                       # Number of write requests responded to by this memory
system.physmem.num_writes::cpu07.data               0                       # Number of write requests responded to by this memory
system.physmem.num_writes::cpu08.dtb.walker            0                       # Number of write requests responded to by this memory
system.physmem.num_writes::cpu08.itb.walker            0                       # Number of write requests responded to by this memory
system.physmem.num_writes::cpu08.inst               0                       # Number of write requests responded to by this memory
system.physmem.num_writes::cpu08.data               0                       # Number of write requests responded to by this memory
system.physmem.num_writes::cpu09.dtb.walker            0                       # Number of write requests responded to by this memory
system.physmem.num_writes::cpu09.itb.walker            0                       # Number of write requests responded to by this memory
system.physmem.num_writes::cpu09.inst               0                       # Number of write requests responded to by this memory
system.physmem.num_writes::cpu09.data               0                       # Number of write requests responded to by this memory
system.physmem.num_writes::cpu10.dtb.walker            0                       # Number of write requests responded to by this memory
system.physmem.num_writes::cpu10.itb.walker            0                       # Number of write requests responded to by this memory
system.physmem.num_writes::cpu10.inst               0                       # Number of write requests responded to by this memory
system.physmem.num_writes::cpu10.data               0                       # Number of write requests responded to by this memory
system.physmem.num_writes::cpu11.dtb.walker            0                       # Number of write requests responded to by this memory
system.physmem.num_writes::cpu11.itb.walker            0                       # Number of write requests responded to by this memory
system.physmem.num_writes::cpu11.inst               0                       # Number of write requests responded to by this memory
system.physmem.num_writes::cpu11.data               0                       # Number of write requests responded to by this memory
system.physmem.num_writes::cpu12.dtb.walker            0                       # Number of write requests responded to by this memory
system.physmem.num_writes::cpu12.itb.walker            0                       # Number of write requests responded to by this memory
system.physmem.num_writes::cpu12.inst               0                       # Number of write requests responded to by this memory
system.physmem.num_writes::cpu12.data               0                       # Number of write requests responded to by this memory
system.physmem.num_writes::cpu13.dtb.walker            0                       # Number of write requests responded to by this memory
system.physmem.num_writes::cpu13.itb.walker            0                       # Number of write requests responded to by this memory
system.physmem.num_writes::cpu13.inst               0                       # Number of write requests responded to by this memory
system.physmem.num_writes::cpu13.data               0                       # Number of write requests responded to by this memory
system.physmem.num_writes::cpu14.dtb.walker            0                       # Number of write requests responded to by this memory
system.physmem.num_writes::cpu14.itb.walker            0                       # Number of write requests responded to by this memory
system.physmem.num_writes::cpu14.inst               0                       # Number of write requests responded to by this memory
system.physmem.num_writes::cpu14.data               0                       # Number of write requests responded to by this memory
system.physmem.num_writes::cpu15.dtb.walker            0                       # Number of write requests responded to by this memory
system.physmem.num_writes::cpu15.itb.walker            0                       # Number of write requests responded to by this memory
system.physmem.num_writes::cpu15.inst               0                       # Number of write requests responded to by this memory
system.physmem.num_writes::cpu15.data               0                       # Number of write requests responded to by this memory
system.physmem.num_writes::total                 2021                       # Number of write requests responded to by this memory
system.physmem.bw_read::switch_cpus00.inst      1511018                       # Total read bandwidth from this memory (bytes/s)
system.physmem.bw_read::switch_cpus00.data     68693221                       # Total read bandwidth from this memory (bytes/s)
system.physmem.bw_read::switch_cpus01.inst      2440876                       # Total read bandwidth from this memory (bytes/s)
system.physmem.bw_read::switch_cpus01.data     11855683                       # Total read bandwidth from this memory (bytes/s)
system.physmem.bw_read::switch_cpus02.inst      1627251                       # Total read bandwidth from this memory (bytes/s)
system.physmem.bw_read::switch_cpus02.data     45446784                       # Total read bandwidth from this memory (bytes/s)
system.physmem.bw_read::switch_cpus03.inst      1627251                       # Total read bandwidth from this memory (bytes/s)
system.physmem.bw_read::switch_cpus03.data     19643239                       # Total read bandwidth from this memory (bytes/s)
system.physmem.bw_read::switch_cpus04.inst      2557108                       # Total read bandwidth from this memory (bytes/s)
system.physmem.bw_read::switch_cpus04.data     12901772                       # Total read bandwidth from this memory (bytes/s)
system.physmem.bw_read::switch_cpus05.inst      3138269                       # Total read bandwidth from this memory (bytes/s)
system.physmem.bw_read::switch_cpus05.data     24873687                       # Total read bandwidth from this memory (bytes/s)
system.physmem.bw_read::switch_cpus06.inst      3138269                       # Total read bandwidth from this memory (bytes/s)
system.physmem.bw_read::switch_cpus06.data     19178310                       # Total read bandwidth from this memory (bytes/s)
system.physmem.bw_read::switch_cpus07.inst      2557108                       # Total read bandwidth from this memory (bytes/s)
system.physmem.bw_read::switch_cpus07.data     12436844                       # Total read bandwidth from this memory (bytes/s)
system.physmem.bw_read::switch_cpus08.inst      2557108                       # Total read bandwidth from this memory (bytes/s)
system.physmem.bw_read::switch_cpus08.data     13715398                       # Total read bandwidth from this memory (bytes/s)
system.physmem.bw_read::switch_cpus09.inst      1511018                       # Total read bandwidth from this memory (bytes/s)
system.physmem.bw_read::switch_cpus09.data     70785400                       # Total read bandwidth from this memory (bytes/s)
system.physmem.bw_read::switch_cpus10.inst      2557108                       # Total read bandwidth from this memory (bytes/s)
system.physmem.bw_read::switch_cpus10.data     12785540                       # Total read bandwidth from this memory (bytes/s)
system.physmem.bw_read::switch_cpus11.inst      1743483                       # Total read bandwidth from this memory (bytes/s)
system.physmem.bw_read::switch_cpus11.data     46841570                       # Total read bandwidth from this memory (bytes/s)
system.physmem.bw_read::switch_cpus12.inst      3022037                       # Total read bandwidth from this memory (bytes/s)
system.physmem.bw_read::switch_cpus12.data     25222384                       # Total read bandwidth from this memory (bytes/s)
system.physmem.bw_read::switch_cpus13.inst      1627251                       # Total read bandwidth from this memory (bytes/s)
system.physmem.bw_read::switch_cpus13.data     46376641                       # Total read bandwidth from this memory (bytes/s)
system.physmem.bw_read::switch_cpus14.inst      1511018                       # Total read bandwidth from this memory (bytes/s)
system.physmem.bw_read::switch_cpus14.data     68112060                       # Total read bandwidth from this memory (bytes/s)
system.physmem.bw_read::switch_cpus15.inst      3022037                       # Total read bandwidth from this memory (bytes/s)
system.physmem.bw_read::switch_cpus15.data     25106152                       # Total read bandwidth from this memory (bytes/s)
system.physmem.bw_read::total               560122895                       # Total read bandwidth from this memory (bytes/s)
system.physmem.bw_inst_read::switch_cpus00.inst      1511018                       # Instruction read bandwidth from this memory (bytes/s)
system.physmem.bw_inst_read::switch_cpus01.inst      2440876                       # Instruction read bandwidth from this memory (bytes/s)
system.physmem.bw_inst_read::switch_cpus02.inst      1627251                       # Instruction read bandwidth from this memory (bytes/s)
system.physmem.bw_inst_read::switch_cpus03.inst      1627251                       # Instruction read bandwidth from this memory (bytes/s)
system.physmem.bw_inst_read::switch_cpus04.inst      2557108                       # Instruction read bandwidth from this memory (bytes/s)
system.physmem.bw_inst_read::switch_cpus05.inst      3138269                       # Instruction read bandwidth from this memory (bytes/s)
system.physmem.bw_inst_read::switch_cpus06.inst      3138269                       # Instruction read bandwidth from this memory (bytes/s)
system.physmem.bw_inst_read::switch_cpus07.inst      2557108                       # Instruction read bandwidth from this memory (bytes/s)
system.physmem.bw_inst_read::switch_cpus08.inst      2557108                       # Instruction read bandwidth from this memory (bytes/s)
system.physmem.bw_inst_read::switch_cpus09.inst      1511018                       # Instruction read bandwidth from this memory (bytes/s)
system.physmem.bw_inst_read::switch_cpus10.inst      2557108                       # Instruction read bandwidth from this memory (bytes/s)
system.physmem.bw_inst_read::switch_cpus11.inst      1743483                       # Instruction read bandwidth from this memory (bytes/s)
system.physmem.bw_inst_read::switch_cpus12.inst      3022037                       # Instruction read bandwidth from this memory (bytes/s)
system.physmem.bw_inst_read::switch_cpus13.inst      1627251                       # Instruction read bandwidth from this memory (bytes/s)
system.physmem.bw_inst_read::switch_cpus14.inst      1511018                       # Instruction read bandwidth from this memory (bytes/s)
system.physmem.bw_inst_read::switch_cpus15.inst      3022037                       # Instruction read bandwidth from this memory (bytes/s)
system.physmem.bw_inst_read::total           36148209                       # Instruction read bandwidth from this memory (bytes/s)
system.physmem.bw_write::writebacks         234905244                       # Write bandwidth from this memory (bytes/s)
system.physmem.bw_write::total              234905244                       # Write bandwidth from this memory (bytes/s)
system.physmem.bw_total::writebacks         234905244                       # Total bandwidth to/from this memory (bytes/s)
system.physmem.bw_total::switch_cpus00.inst      1511018                       # Total bandwidth to/from this memory (bytes/s)
system.physmem.bw_total::switch_cpus00.data     68693221                       # Total bandwidth to/from this memory (bytes/s)
system.physmem.bw_total::switch_cpus01.inst      2440876                       # Total bandwidth to/from this memory (bytes/s)
system.physmem.bw_total::switch_cpus01.data     11855683                       # Total bandwidth to/from this memory (bytes/s)
system.physmem.bw_total::switch_cpus02.inst      1627251                       # Total bandwidth to/from this memory (bytes/s)
system.physmem.bw_total::switch_cpus02.data     45446784                       # Total bandwidth to/from this memory (bytes/s)
system.physmem.bw_total::switch_cpus03.inst      1627251                       # Total bandwidth to/from this memory (bytes/s)
system.physmem.bw_total::switch_cpus03.data     19643239                       # Total bandwidth to/from this memory (bytes/s)
system.physmem.bw_total::switch_cpus04.inst      2557108                       # Total bandwidth to/from this memory (bytes/s)
system.physmem.bw_total::switch_cpus04.data     12901772                       # Total bandwidth to/from this memory (bytes/s)
system.physmem.bw_total::switch_cpus05.inst      3138269                       # Total bandwidth to/from this memory (bytes/s)
system.physmem.bw_total::switch_cpus05.data     24873687                       # Total bandwidth to/from this memory (bytes/s)
system.physmem.bw_total::switch_cpus06.inst      3138269                       # Total bandwidth to/from this memory (bytes/s)
system.physmem.bw_total::switch_cpus06.data     19178310                       # Total bandwidth to/from this memory (bytes/s)
system.physmem.bw_total::switch_cpus07.inst      2557108                       # Total bandwidth to/from this memory (bytes/s)
system.physmem.bw_total::switch_cpus07.data     12436844                       # Total bandwidth to/from this memory (bytes/s)
system.physmem.bw_total::switch_cpus08.inst      2557108                       # Total bandwidth to/from this memory (bytes/s)
system.physmem.bw_total::switch_cpus08.data     13715398                       # Total bandwidth to/from this memory (bytes/s)
system.physmem.bw_total::switch_cpus09.inst      1511018                       # Total bandwidth to/from this memory (bytes/s)
system.physmem.bw_total::switch_cpus09.data     70785400                       # Total bandwidth to/from this memory (bytes/s)
system.physmem.bw_total::switch_cpus10.inst      2557108                       # Total bandwidth to/from this memory (bytes/s)
system.physmem.bw_total::switch_cpus10.data     12785540                       # Total bandwidth to/from this memory (bytes/s)
system.physmem.bw_total::switch_cpus11.inst      1743483                       # Total bandwidth to/from this memory (bytes/s)
system.physmem.bw_total::switch_cpus11.data     46841570                       # Total bandwidth to/from this memory (bytes/s)
system.physmem.bw_total::switch_cpus12.inst      3022037                       # Total bandwidth to/from this memory (bytes/s)
system.physmem.bw_total::switch_cpus12.data     25222384                       # Total bandwidth to/from this memory (bytes/s)
system.physmem.bw_total::switch_cpus13.inst      1627251                       # Total bandwidth to/from this memory (bytes/s)
system.physmem.bw_total::switch_cpus13.data     46376641                       # Total bandwidth to/from this memory (bytes/s)
system.physmem.bw_total::switch_cpus14.inst      1511018                       # Total bandwidth to/from this memory (bytes/s)
system.physmem.bw_total::switch_cpus14.data     68112060                       # Total bandwidth to/from this memory (bytes/s)
system.physmem.bw_total::switch_cpus15.inst      3022037                       # Total bandwidth to/from this memory (bytes/s)
system.physmem.bw_total::switch_cpus15.data     25106152                       # Total bandwidth to/from this memory (bytes/s)
system.physmem.bw_total::total              795028139                       # Total bandwidth to/from this memory (bytes/s)
system.switch_cpus00.dtb.inst_hits                  0                       # ITB inst hits
system.switch_cpus00.dtb.inst_misses                0                       # ITB inst misses
system.switch_cpus00.dtb.read_hits                  0                       # DTB read hits
system.switch_cpus00.dtb.read_misses                0                       # DTB read misses
system.switch_cpus00.dtb.write_hits                 0                       # DTB write hits
system.switch_cpus00.dtb.write_misses               0                       # DTB write misses
system.switch_cpus00.dtb.flush_tlb                  0                       # Number of times complete TLB was flushed
system.switch_cpus00.dtb.flush_tlb_mva              0                       # Number of times TLB was flushed by MVA
system.switch_cpus00.dtb.flush_tlb_mva_asid            0                       # Number of times TLB was flushed by MVA & ASID
system.switch_cpus00.dtb.flush_tlb_asid             0                       # Number of times TLB was flushed by ASID
system.switch_cpus00.dtb.flush_entries              0                       # Number of entries that have been flushed from TLB
system.switch_cpus00.dtb.align_faults               0                       # Number of TLB faults due to alignment restrictions
system.switch_cpus00.dtb.prefetch_faults            0                       # Number of TLB faults due to prefetch
system.switch_cpus00.dtb.domain_faults              0                       # Number of TLB faults due to domain restrictions
system.switch_cpus00.dtb.perms_faults               0                       # Number of TLB faults due to permissions restrictions
system.switch_cpus00.dtb.read_accesses              0                       # DTB read accesses
system.switch_cpus00.dtb.write_accesses             0                       # DTB write accesses
system.switch_cpus00.dtb.inst_accesses              0                       # ITB inst accesses
system.switch_cpus00.dtb.hits                       0                       # DTB hits
system.switch_cpus00.dtb.misses                     0                       # DTB misses
system.switch_cpus00.dtb.accesses                   0                       # DTB accesses
system.switch_cpus00.itb.inst_hits                  0                       # ITB inst hits
system.switch_cpus00.itb.inst_misses                0                       # ITB inst misses
system.switch_cpus00.itb.read_hits                  0                       # DTB read hits
system.switch_cpus00.itb.read_misses                0                       # DTB read misses
system.switch_cpus00.itb.write_hits                 0                       # DTB write hits
system.switch_cpus00.itb.write_misses               0                       # DTB write misses
system.switch_cpus00.itb.flush_tlb                  0                       # Number of times complete TLB was flushed
system.switch_cpus00.itb.flush_tlb_mva              0                       # Number of times TLB was flushed by MVA
system.switch_cpus00.itb.flush_tlb_mva_asid            0                       # Number of times TLB was flushed by MVA & ASID
system.switch_cpus00.itb.flush_tlb_asid             0                       # Number of times TLB was flushed by ASID
system.switch_cpus00.itb.flush_entries              0                       # Number of entries that have been flushed from TLB
system.switch_cpus00.itb.align_faults               0                       # Number of TLB faults due to alignment restrictions
system.switch_cpus00.itb.prefetch_faults            0                       # Number of TLB faults due to prefetch
system.switch_cpus00.itb.domain_faults              0                       # Number of TLB faults due to domain restrictions
system.switch_cpus00.itb.perms_faults               0                       # Number of TLB faults due to permissions restrictions
system.switch_cpus00.itb.read_accesses              0                       # DTB read accesses
system.switch_cpus00.itb.write_accesses             0                       # DTB write accesses
system.switch_cpus00.itb.inst_accesses              0                       # ITB inst accesses
system.switch_cpus00.itb.hits                       0                       # DTB hits
system.switch_cpus00.itb.misses                     0                       # DTB misses
system.switch_cpus00.itb.accesses                   0                       # DTB accesses
system.cpu00.workload.num_syscalls                  0                       # Number of system calls
system.switch_cpus00.numCycles                2640874                       # number of cpu cycles simulated
system.switch_cpus00.numWorkItemsStarted            0                       # number of work items this cpu started
system.switch_cpus00.numWorkItemsCompleted            0                       # number of work items this cpu completed
system.switch_cpus00.BPredUnit.lookups         206004                       # Number of BP lookups
system.switch_cpus00.BPredUnit.condPredicted       168154                       # Number of conditional branches predicted
system.switch_cpus00.BPredUnit.condIncorrect        21614                       # Number of conditional branches incorrect
system.switch_cpus00.BPredUnit.BTBLookups        85267                       # Number of BTB lookups
system.switch_cpus00.BPredUnit.BTBHits          78283                       # Number of BTB hits
system.switch_cpus00.BPredUnit.BTBCorrect            0                       # Number of correct BTB predictions (this stat may not work properly.
system.switch_cpus00.BPredUnit.usedRAS          20618                       # Number of times the RAS was used to get a target.
system.switch_cpus00.BPredUnit.RASInCorrect          950                       # Number of incorrect RAS predictions.
system.switch_cpus00.fetch.icacheStallCycles      1996054                       # Number of cycles fetch is stalled on an Icache miss
system.switch_cpus00.fetch.Insts              1218477                       # Number of instructions fetch has processed
system.switch_cpus00.fetch.Branches            206004                       # Number of branches that fetch encountered
system.switch_cpus00.fetch.predictedBranches        98901                       # Number of branches that fetch has predicted taken
system.switch_cpus00.fetch.Cycles              249869                       # Number of cycles fetch has run and was not squashing or blocked
system.switch_cpus00.fetch.SquashCycles         67474                       # Number of cycles fetch has spent squashing
system.switch_cpus00.fetch.BlockedCycles        68186                       # Number of cycles fetch has spent blocked
system.switch_cpus00.fetch.CacheLines          124516                       # Number of cache lines fetched
system.switch_cpus00.fetch.IcacheSquashes        21669                       # Number of outstanding Icache misses that were squashed
system.switch_cpus00.fetch.rateDist::samples      2359192                       # Number of instructions fetched each cycle (Total)
system.switch_cpus00.fetch.rateDist::mean     0.627770                       # Number of instructions fetched each cycle (Total)
system.switch_cpus00.fetch.rateDist::stdev     1.994485                       # Number of instructions fetched each cycle (Total)
system.switch_cpus00.fetch.rateDist::underflows            0      0.00%      0.00% # Number of instructions fetched each cycle (Total)
system.switch_cpus00.fetch.rateDist::0        2109323     89.41%     89.41% # Number of instructions fetched each cycle (Total)
system.switch_cpus00.fetch.rateDist::1          13133      0.56%     89.97% # Number of instructions fetched each cycle (Total)
system.switch_cpus00.fetch.rateDist::2          20851      0.88%     90.85% # Number of instructions fetched each cycle (Total)
system.switch_cpus00.fetch.rateDist::3          31629      1.34%     92.19% # Number of instructions fetched each cycle (Total)
system.switch_cpus00.fetch.rateDist::4          13058      0.55%     92.74% # Number of instructions fetched each cycle (Total)
system.switch_cpus00.fetch.rateDist::5          15482      0.66%     93.40% # Number of instructions fetched each cycle (Total)
system.switch_cpus00.fetch.rateDist::6          16242      0.69%     94.09% # Number of instructions fetched each cycle (Total)
system.switch_cpus00.fetch.rateDist::7          11579      0.49%     94.58% # Number of instructions fetched each cycle (Total)
system.switch_cpus00.fetch.rateDist::8         127895      5.42%    100.00% # Number of instructions fetched each cycle (Total)
system.switch_cpus00.fetch.rateDist::overflows            0      0.00%    100.00% # Number of instructions fetched each cycle (Total)
system.switch_cpus00.fetch.rateDist::min_value            0                       # Number of instructions fetched each cycle (Total)
system.switch_cpus00.fetch.rateDist::max_value            8                       # Number of instructions fetched each cycle (Total)
system.switch_cpus00.fetch.rateDist::total      2359192                       # Number of instructions fetched each cycle (Total)
system.switch_cpus00.fetch.branchRate        0.078006                       # Number of branch fetches per cycle
system.switch_cpus00.fetch.rate              0.461392                       # Number of inst fetches per cycle
system.switch_cpus00.decode.IdleCycles        1970722                       # Number of cycles decode is idle
system.switch_cpus00.decode.BlockedCycles        94177                       # Number of cycles decode is blocked
system.switch_cpus00.decode.RunCycles          248150                       # Number of cycles decode is running
system.switch_cpus00.decode.UnblockCycles         1387                       # Number of cycles decode is unblocking
system.switch_cpus00.decode.SquashCycles        44755                       # Number of cycles decode is squashing
system.switch_cpus00.decode.BranchResolved        33294                       # Number of times decode resolved a branch
system.switch_cpus00.decode.BranchMispred          329                       # Number of times decode detected a branch misprediction
system.switch_cpus00.decode.DecodedInsts      1477188                       # Number of instructions handled by decode
system.switch_cpus00.decode.SquashedInsts         1091                       # Number of squashed instructions handled by decode
system.switch_cpus00.rename.SquashCycles        44755                       # Number of cycles rename is squashing
system.switch_cpus00.rename.IdleCycles        1975670                       # Number of cycles rename is idle
system.switch_cpus00.rename.BlockCycles         41655                       # Number of cycles rename is blocking
system.switch_cpus00.rename.serializeStallCycles        37156                       # count of cycles rename stalled for serializing inst
system.switch_cpus00.rename.RunCycles          244701                       # Number of cycles rename is running
system.switch_cpus00.rename.UnblockCycles        15243                       # Number of cycles rename is unblocking
system.switch_cpus00.rename.RenamedInsts      1474466                       # Number of instructions processed by rename
system.switch_cpus00.rename.ROBFullEvents          909                       # Number of times rename has blocked due to ROB full
system.switch_cpus00.rename.IQFullEvents         2487                       # Number of times rename has blocked due to IQ full
system.switch_cpus00.rename.LSQFullEvents         7890                       # Number of times rename has blocked due to LSQ full
system.switch_cpus00.rename.FullRegisterEvents         1145                       # Number of times there has been no free registers
system.switch_cpus00.rename.RenamedOperands      2017922                       # Number of destination operands rename has renamed
system.switch_cpus00.rename.RenameLookups      6872045                       # Number of register rename lookups that rename has made
system.switch_cpus00.rename.int_rename_lookups      6872045                       # Number of integer rename lookups
system.switch_cpus00.rename.CommittedMaps      1668978                       # Number of HB maps that are committed
system.switch_cpus00.rename.UndoneMaps         348924                       # Number of HB maps that are undone due to squashing
system.switch_cpus00.rename.serializingInsts          326                       # count of serializing insts renamed
system.switch_cpus00.rename.tempSerializingInsts          173                       # count of temporary serializing insts renamed
system.switch_cpus00.rename.skidInsts           44408                       # count of insts added to the skid buffer
system.switch_cpus00.memDep0.insertedLoads       148921                       # Number of loads inserted to the mem dependence unit.
system.switch_cpus00.memDep0.insertedStores        82846                       # Number of stores inserted to the mem dependence unit.
system.switch_cpus00.memDep0.conflictingLoads         4108                       # Number of conflicting loads.
system.switch_cpus00.memDep0.conflictingStores        15875                       # Number of conflicting stores.
system.switch_cpus00.iq.iqInstsAdded          1469688                       # Number of instructions added to the IQ (excludes non-spec)
system.switch_cpus00.iq.iqNonSpecInstsAdded          325                       # Number of non-speculative instructions added to the IQ
system.switch_cpus00.iq.iqInstsIssued         1373648                       # Number of instructions issued
system.switch_cpus00.iq.iqSquashedInstsIssued         2093                       # Number of squashed instructions issued
system.switch_cpus00.iq.iqSquashedInstsExamined       222710                       # Number of squashed instructions iterated over during squash; mainly for profiling
system.switch_cpus00.iq.iqSquashedOperandsExamined       510795                       # Number of squashed operands that are examined and possibly removed from graph
system.switch_cpus00.iq.iqSquashedNonSpecRemoved           21                       # Number of squashed non-spec instructions that were removed
system.switch_cpus00.iq.issued_per_cycle::samples      2359192                       # Number of insts issued each cycle
system.switch_cpus00.iq.issued_per_cycle::mean     0.582254                       # Number of insts issued each cycle
system.switch_cpus00.iq.issued_per_cycle::stdev     1.267687                       # Number of insts issued each cycle
system.switch_cpus00.iq.issued_per_cycle::underflows            0      0.00%      0.00% # Number of insts issued each cycle
system.switch_cpus00.iq.issued_per_cycle::0      1774800     75.23%     75.23% # Number of insts issued each cycle
system.switch_cpus00.iq.issued_per_cycle::1       236671     10.03%     85.26% # Number of insts issued each cycle
system.switch_cpus00.iq.issued_per_cycle::2       130563      5.53%     90.80% # Number of insts issued each cycle
system.switch_cpus00.iq.issued_per_cycle::3        86449      3.66%     94.46% # Number of insts issued each cycle
system.switch_cpus00.iq.issued_per_cycle::4        78797      3.34%     97.80% # Number of insts issued each cycle
system.switch_cpus00.iq.issued_per_cycle::5        24298      1.03%     98.83% # Number of insts issued each cycle
system.switch_cpus00.iq.issued_per_cycle::6        17466      0.74%     99.57% # Number of insts issued each cycle
system.switch_cpus00.iq.issued_per_cycle::7         6154      0.26%     99.83% # Number of insts issued each cycle
system.switch_cpus00.iq.issued_per_cycle::8         3994      0.17%    100.00% # Number of insts issued each cycle
system.switch_cpus00.iq.issued_per_cycle::overflows            0      0.00%    100.00% # Number of insts issued each cycle
system.switch_cpus00.iq.issued_per_cycle::min_value            0                       # Number of insts issued each cycle
system.switch_cpus00.iq.issued_per_cycle::max_value            8                       # Number of insts issued each cycle
system.switch_cpus00.iq.issued_per_cycle::total      2359192                       # Number of insts issued each cycle
system.switch_cpus00.iq.fu_full::No_OpClass            0      0.00%      0.00% # attempts to use FU when none available
system.switch_cpus00.iq.fu_full::IntAlu           384     11.40%     11.40% # attempts to use FU when none available
system.switch_cpus00.iq.fu_full::IntMult            0      0.00%     11.40% # attempts to use FU when none available
system.switch_cpus00.iq.fu_full::IntDiv             0      0.00%     11.40% # attempts to use FU when none available
system.switch_cpus00.iq.fu_full::FloatAdd            0      0.00%     11.40% # attempts to use FU when none available
system.switch_cpus00.iq.fu_full::FloatCmp            0      0.00%     11.40% # attempts to use FU when none available
system.switch_cpus00.iq.fu_full::FloatCvt            0      0.00%     11.40% # attempts to use FU when none available
system.switch_cpus00.iq.fu_full::FloatMult            0      0.00%     11.40% # attempts to use FU when none available
system.switch_cpus00.iq.fu_full::FloatDiv            0      0.00%     11.40% # attempts to use FU when none available
system.switch_cpus00.iq.fu_full::FloatSqrt            0      0.00%     11.40% # attempts to use FU when none available
system.switch_cpus00.iq.fu_full::SimdAdd            0      0.00%     11.40% # attempts to use FU when none available
system.switch_cpus00.iq.fu_full::SimdAddAcc            0      0.00%     11.40% # attempts to use FU when none available
system.switch_cpus00.iq.fu_full::SimdAlu            0      0.00%     11.40% # attempts to use FU when none available
system.switch_cpus00.iq.fu_full::SimdCmp            0      0.00%     11.40% # attempts to use FU when none available
system.switch_cpus00.iq.fu_full::SimdCvt            0      0.00%     11.40% # attempts to use FU when none available
system.switch_cpus00.iq.fu_full::SimdMisc            0      0.00%     11.40% # attempts to use FU when none available
system.switch_cpus00.iq.fu_full::SimdMult            0      0.00%     11.40% # attempts to use FU when none available
system.switch_cpus00.iq.fu_full::SimdMultAcc            0      0.00%     11.40% # attempts to use FU when none available
system.switch_cpus00.iq.fu_full::SimdShift            0      0.00%     11.40% # attempts to use FU when none available
system.switch_cpus00.iq.fu_full::SimdShiftAcc            0      0.00%     11.40% # attempts to use FU when none available
system.switch_cpus00.iq.fu_full::SimdSqrt            0      0.00%     11.40% # attempts to use FU when none available
system.switch_cpus00.iq.fu_full::SimdFloatAdd            0      0.00%     11.40% # attempts to use FU when none available
system.switch_cpus00.iq.fu_full::SimdFloatAlu            0      0.00%     11.40% # attempts to use FU when none available
system.switch_cpus00.iq.fu_full::SimdFloatCmp            0      0.00%     11.40% # attempts to use FU when none available
system.switch_cpus00.iq.fu_full::SimdFloatCvt            0      0.00%     11.40% # attempts to use FU when none available
system.switch_cpus00.iq.fu_full::SimdFloatDiv            0      0.00%     11.40% # attempts to use FU when none available
system.switch_cpus00.iq.fu_full::SimdFloatMisc            0      0.00%     11.40% # attempts to use FU when none available
system.switch_cpus00.iq.fu_full::SimdFloatMult            0      0.00%     11.40% # attempts to use FU when none available
system.switch_cpus00.iq.fu_full::SimdFloatMultAcc            0      0.00%     11.40% # attempts to use FU when none available
system.switch_cpus00.iq.fu_full::SimdFloatSqrt            0      0.00%     11.40% # attempts to use FU when none available
system.switch_cpus00.iq.fu_full::MemRead         1385     41.11%     52.51% # attempts to use FU when none available
system.switch_cpus00.iq.fu_full::MemWrite         1600     47.49%    100.00% # attempts to use FU when none available
system.switch_cpus00.iq.fu_full::IprAccess            0      0.00%    100.00% # attempts to use FU when none available
system.switch_cpus00.iq.fu_full::InstPrefetch            0      0.00%    100.00% # attempts to use FU when none available
system.switch_cpus00.iq.FU_type_0::No_OpClass            0      0.00%      0.00% # Type of FU issued
system.switch_cpus00.iq.FU_type_0::IntAlu      1130917     82.33%     82.33% # Type of FU issued
system.switch_cpus00.iq.FU_type_0::IntMult        25252      1.84%     84.17% # Type of FU issued
system.switch_cpus00.iq.FU_type_0::IntDiv            0      0.00%     84.17% # Type of FU issued
system.switch_cpus00.iq.FU_type_0::FloatAdd            0      0.00%     84.17% # Type of FU issued
system.switch_cpus00.iq.FU_type_0::FloatCmp            0      0.00%     84.17% # Type of FU issued
system.switch_cpus00.iq.FU_type_0::FloatCvt            0      0.00%     84.17% # Type of FU issued
system.switch_cpus00.iq.FU_type_0::FloatMult            0      0.00%     84.17% # Type of FU issued
system.switch_cpus00.iq.FU_type_0::FloatDiv            0      0.00%     84.17% # Type of FU issued
system.switch_cpus00.iq.FU_type_0::FloatSqrt            0      0.00%     84.17% # Type of FU issued
system.switch_cpus00.iq.FU_type_0::SimdAdd            0      0.00%     84.17% # Type of FU issued
system.switch_cpus00.iq.FU_type_0::SimdAddAcc            0      0.00%     84.17% # Type of FU issued
system.switch_cpus00.iq.FU_type_0::SimdAlu            0      0.00%     84.17% # Type of FU issued
system.switch_cpus00.iq.FU_type_0::SimdCmp            0      0.00%     84.17% # Type of FU issued
system.switch_cpus00.iq.FU_type_0::SimdCvt            0      0.00%     84.17% # Type of FU issued
system.switch_cpus00.iq.FU_type_0::SimdMisc            0      0.00%     84.17% # Type of FU issued
system.switch_cpus00.iq.FU_type_0::SimdMult            0      0.00%     84.17% # Type of FU issued
system.switch_cpus00.iq.FU_type_0::SimdMultAcc            0      0.00%     84.17% # Type of FU issued
system.switch_cpus00.iq.FU_type_0::SimdShift            0      0.00%     84.17% # Type of FU issued
system.switch_cpus00.iq.FU_type_0::SimdShiftAcc            0      0.00%     84.17% # Type of FU issued
system.switch_cpus00.iq.FU_type_0::SimdSqrt            0      0.00%     84.17% # Type of FU issued
system.switch_cpus00.iq.FU_type_0::SimdFloatAdd            0      0.00%     84.17% # Type of FU issued
system.switch_cpus00.iq.FU_type_0::SimdFloatAlu            0      0.00%     84.17% # Type of FU issued
system.switch_cpus00.iq.FU_type_0::SimdFloatCmp            0      0.00%     84.17% # Type of FU issued
system.switch_cpus00.iq.FU_type_0::SimdFloatCvt            0      0.00%     84.17% # Type of FU issued
system.switch_cpus00.iq.FU_type_0::SimdFloatDiv            0      0.00%     84.17% # Type of FU issued
system.switch_cpus00.iq.FU_type_0::SimdFloatMisc          153      0.01%     84.18% # Type of FU issued
system.switch_cpus00.iq.FU_type_0::SimdFloatMult            0      0.00%     84.18% # Type of FU issued
system.switch_cpus00.iq.FU_type_0::SimdFloatMultAcc            0      0.00%     84.18% # Type of FU issued
system.switch_cpus00.iq.FU_type_0::SimdFloatSqrt            0      0.00%     84.18% # Type of FU issued
system.switch_cpus00.iq.FU_type_0::MemRead       136112      9.91%     94.09% # Type of FU issued
system.switch_cpus00.iq.FU_type_0::MemWrite        81214      5.91%    100.00% # Type of FU issued
system.switch_cpus00.iq.FU_type_0::IprAccess            0      0.00%    100.00% # Type of FU issued
system.switch_cpus00.iq.FU_type_0::InstPrefetch            0      0.00%    100.00% # Type of FU issued
system.switch_cpus00.iq.FU_type_0::total      1373648                       # Type of FU issued
system.switch_cpus00.iq.rate                 0.520149                       # Inst issue rate
system.switch_cpus00.iq.fu_busy_cnt              3369                       # FU busy when requested
system.switch_cpus00.iq.fu_busy_rate         0.002453                       # FU busy rate (busy events/executed inst)
system.switch_cpus00.iq.int_inst_queue_reads      5111949                       # Number of integer instruction queue reads
system.switch_cpus00.iq.int_inst_queue_writes      1692787                       # Number of integer instruction queue writes
system.switch_cpus00.iq.int_inst_queue_wakeup_accesses      1348482                       # Number of integer instruction queue wakeup accesses
system.switch_cpus00.iq.fp_inst_queue_reads            0                       # Number of floating instruction queue reads
system.switch_cpus00.iq.fp_inst_queue_writes            0                       # Number of floating instruction queue writes
system.switch_cpus00.iq.fp_inst_queue_wakeup_accesses            0                       # Number of floating instruction queue wakeup accesses
system.switch_cpus00.iq.int_alu_accesses      1377017                       # Number of integer alu accesses
system.switch_cpus00.iq.fp_alu_accesses             0                       # Number of floating point alu accesses
system.switch_cpus00.iew.lsq.thread0.forwLoads         6426                       # Number of loads that had data forwarded from stores
system.switch_cpus00.iew.lsq.thread0.invAddrLoads            0                       # Number of loads ignored due to an invalid address
system.switch_cpus00.iew.lsq.thread0.squashedLoads        30818                       # Number of loads squashed
system.switch_cpus00.iew.lsq.thread0.ignoredResponses            7                       # Number of memory responses ignored because the instruction is squashed
system.switch_cpus00.iew.lsq.thread0.memOrderViolation           65                       # Number of memory ordering violations
system.switch_cpus00.iew.lsq.thread0.squashedStores         5541                       # Number of stores squashed
system.switch_cpus00.iew.lsq.thread0.invAddrSwpfs            0                       # Number of software prefetches ignored due to an invalid address
system.switch_cpus00.iew.lsq.thread0.blockedLoads            0                       # Number of blocked loads due to partial load-store forwarding
system.switch_cpus00.iew.lsq.thread0.rescheduledLoads         1136                       # Number of loads that were rescheduled
system.switch_cpus00.iew.lsq.thread0.cacheBlocked            0                       # Number of times an access to memory failed due to the cache being blocked
system.switch_cpus00.iew.iewIdleCycles              0                       # Number of cycles IEW is idle
system.switch_cpus00.iew.iewSquashCycles        44755                       # Number of cycles IEW is squashing
system.switch_cpus00.iew.iewBlockCycles         30080                       # Number of cycles IEW is blocking
system.switch_cpus00.iew.iewUnblockCycles         1639                       # Number of cycles IEW is unblocking
system.switch_cpus00.iew.iewDispatchedInsts      1470013                       # Number of instructions dispatched to IQ
system.switch_cpus00.iew.iewDispSquashedInsts           41                       # Number of squashed instructions skipped by dispatch
system.switch_cpus00.iew.iewDispLoadInsts       148921                       # Number of dispatched load instructions
system.switch_cpus00.iew.iewDispStoreInsts        82846                       # Number of dispatched store instructions
system.switch_cpus00.iew.iewDispNonSpecInsts          173                       # Number of dispatched non-speculative instructions
system.switch_cpus00.iew.iewIQFullEvents          881                       # Number of times the IQ has become full, causing a stall
system.switch_cpus00.iew.iewLSQFullEvents           38                       # Number of times the LSQ has become full, causing a stall
system.switch_cpus00.iew.memOrderViolationEvents           65                       # Number of memory order violations
system.switch_cpus00.iew.predictedTakenIncorrect        11795                       # Number of branches that were predicted taken incorrectly
system.switch_cpus00.iew.predictedNotTakenIncorrect        13349                       # Number of branches that were predicted not taken incorrectly
system.switch_cpus00.iew.branchMispredicts        25144                       # Number of branch mispredicts detected at execute
system.switch_cpus00.iew.iewExecutedInsts      1353537                       # Number of executed instructions
system.switch_cpus00.iew.iewExecLoadInsts       128707                       # Number of load instructions executed
system.switch_cpus00.iew.iewExecSquashedInsts        20110                       # Number of squashed instructions skipped in execute
system.switch_cpus00.iew.exec_swp                   0                       # number of swp insts executed
system.switch_cpus00.iew.exec_nop                   0                       # number of nop insts executed
system.switch_cpus00.iew.exec_refs             209765                       # number of memory reference insts executed
system.switch_cpus00.iew.exec_branches         183557                       # Number of branches executed
system.switch_cpus00.iew.exec_stores            81058                       # Number of stores executed
system.switch_cpus00.iew.exec_rate           0.512534                       # Inst execution rate
system.switch_cpus00.iew.wb_sent              1348590                       # cumulative count of insts sent to commit
system.switch_cpus00.iew.wb_count             1348482                       # cumulative count of insts written-back
system.switch_cpus00.iew.wb_producers          797693                       # num instructions producing a value
system.switch_cpus00.iew.wb_consumers         2023132                       # num instructions consuming a value
system.switch_cpus00.iew.wb_penalized               0                       # number of instrctions required to write to 'other' IQ
system.switch_cpus00.iew.wb_rate             0.510620                       # insts written-back per cycle
system.switch_cpus00.iew.wb_fanout           0.394286                       # average fanout of values written-back
system.switch_cpus00.iew.wb_penalized_rate            0                       # fraction of instructions written-back that wrote to 'other' IQ
system.switch_cpus00.commit.commitCommittedInsts      1000002                       # The number of committed instructions
system.switch_cpus00.commit.commitCommittedOps      1219330                       # The number of committed instructions
system.switch_cpus00.commit.commitSquashedInsts       251922                       # The number of squashed insts skipped by commit
system.switch_cpus00.commit.commitNonSpecStalls          304                       # The number of times commit has been forced to stall to communicate backwards
system.switch_cpus00.commit.branchMispredicts        22018                       # The number of times a branch was mispredicted
system.switch_cpus00.commit.committed_per_cycle::samples      2314437                       # Number of insts commited each cycle
system.switch_cpus00.commit.committed_per_cycle::mean     0.526837                       # Number of insts commited each cycle
system.switch_cpus00.commit.committed_per_cycle::stdev     1.377889                       # Number of insts commited each cycle
system.switch_cpus00.commit.committed_per_cycle::underflows            0      0.00%      0.00% # Number of insts commited each cycle
system.switch_cpus00.commit.committed_per_cycle::0      1820671     78.67%     78.67% # Number of insts commited each cycle
system.switch_cpus00.commit.committed_per_cycle::1       234879     10.15%     88.81% # Number of insts commited each cycle
system.switch_cpus00.commit.committed_per_cycle::2        97595      4.22%     93.03% # Number of insts commited each cycle
system.switch_cpus00.commit.committed_per_cycle::3        50204      2.17%     95.20% # Number of insts commited each cycle
system.switch_cpus00.commit.committed_per_cycle::4        37230      1.61%     96.81% # Number of insts commited each cycle
system.switch_cpus00.commit.committed_per_cycle::5        21273      0.92%     97.73% # Number of insts commited each cycle
system.switch_cpus00.commit.committed_per_cycle::6        13112      0.57%     98.29% # Number of insts commited each cycle
system.switch_cpus00.commit.committed_per_cycle::7        11092      0.48%     98.77% # Number of insts commited each cycle
system.switch_cpus00.commit.committed_per_cycle::8        28381      1.23%    100.00% # Number of insts commited each cycle
system.switch_cpus00.commit.committed_per_cycle::overflows            0      0.00%    100.00% # Number of insts commited each cycle
system.switch_cpus00.commit.committed_per_cycle::min_value            0                       # Number of insts commited each cycle
system.switch_cpus00.commit.committed_per_cycle::max_value            8                       # Number of insts commited each cycle
system.switch_cpus00.commit.committed_per_cycle::total      2314437                       # Number of insts commited each cycle
system.switch_cpus00.commit.committedInsts      1000002                       # Number of instructions committed
system.switch_cpus00.commit.committedOps      1219330                       # Number of ops (including micro ops) committed
system.switch_cpus00.commit.swp_count               0                       # Number of s/w prefetches committed
system.switch_cpus00.commit.refs               195405                       # Number of memory references committed
system.switch_cpus00.commit.loads              118100                       # Number of loads committed
system.switch_cpus00.commit.membars               152                       # Number of memory barriers committed
system.switch_cpus00.commit.branches           169339                       # Number of branches committed
system.switch_cpus00.commit.fp_insts                0                       # Number of committed floating point instructions.
system.switch_cpus00.commit.int_insts         1102366                       # Number of committed integer instructions.
system.switch_cpus00.commit.function_calls        23772                       # Number of function calls committed.
system.switch_cpus00.commit.bw_lim_events        28381                       # number cycles where commit BW limit reached
system.switch_cpus00.commit.bw_limited              0                       # number of insts not committed due to BW limits
system.switch_cpus00.rob.rob_reads            3757308                       # The number of ROB reads
system.switch_cpus00.rob.rob_writes           2987281                       # The number of ROB writes
system.switch_cpus00.timesIdled                 35364                       # Number of times that the entire CPU went into an idle state and unscheduled itself
system.switch_cpus00.idleCycles                281682                       # Total number of cycles that the CPU has spent unscheduled due to idling
system.switch_cpus00.committedInsts           1000002                       # Number of Instructions Simulated
system.switch_cpus00.committedOps             1219330                       # Number of Ops (including micro ops) Simulated
system.switch_cpus00.committedInsts_total      1000002                       # Number of Instructions Simulated
system.switch_cpus00.cpi                     2.640869                       # CPI: Cycles Per Instruction
system.switch_cpus00.cpi_total               2.640869                       # CPI: Total CPI of All Threads
system.switch_cpus00.ipc                     0.378663                       # IPC: Instructions Per Cycle
system.switch_cpus00.ipc_total               0.378663                       # IPC: Total IPC of All Threads
system.switch_cpus00.int_regfile_reads        6143233                       # number of integer regfile reads
system.switch_cpus00.int_regfile_writes       1843085                       # number of integer regfile writes
system.switch_cpus00.misc_regfile_reads       1400047                       # number of misc regfile reads
system.switch_cpus00.misc_regfile_writes          304                       # number of misc regfile writes
system.switch_cpus01.dtb.inst_hits                  0                       # ITB inst hits
system.switch_cpus01.dtb.inst_misses                0                       # ITB inst misses
system.switch_cpus01.dtb.read_hits                  0                       # DTB read hits
system.switch_cpus01.dtb.read_misses                0                       # DTB read misses
system.switch_cpus01.dtb.write_hits                 0                       # DTB write hits
system.switch_cpus01.dtb.write_misses               0                       # DTB write misses
system.switch_cpus01.dtb.flush_tlb                  0                       # Number of times complete TLB was flushed
system.switch_cpus01.dtb.flush_tlb_mva              0                       # Number of times TLB was flushed by MVA
system.switch_cpus01.dtb.flush_tlb_mva_asid            0                       # Number of times TLB was flushed by MVA & ASID
system.switch_cpus01.dtb.flush_tlb_asid             0                       # Number of times TLB was flushed by ASID
system.switch_cpus01.dtb.flush_entries              0                       # Number of entries that have been flushed from TLB
system.switch_cpus01.dtb.align_faults               0                       # Number of TLB faults due to alignment restrictions
system.switch_cpus01.dtb.prefetch_faults            0                       # Number of TLB faults due to prefetch
system.switch_cpus01.dtb.domain_faults              0                       # Number of TLB faults due to domain restrictions
system.switch_cpus01.dtb.perms_faults               0                       # Number of TLB faults due to permissions restrictions
system.switch_cpus01.dtb.read_accesses              0                       # DTB read accesses
system.switch_cpus01.dtb.write_accesses             0                       # DTB write accesses
system.switch_cpus01.dtb.inst_accesses              0                       # ITB inst accesses
system.switch_cpus01.dtb.hits                       0                       # DTB hits
system.switch_cpus01.dtb.misses                     0                       # DTB misses
system.switch_cpus01.dtb.accesses                   0                       # DTB accesses
[...]
system.cpu15.icache.demand_avg_miss_latency::total 165891.656250                       # average overall miss latency
system.cpu15.icache.overall_avg_miss_latency::switch_cpus15.inst 165891.656250                       # average overall miss latency
system.cpu15.icache.overall_avg_miss_latency::total 165891.656250                       # average overall miss latency
system.cpu15.icache.blocked_cycles::no_mshrs            0                       # number of cycles access was blocked
system.cpu15.icache.blocked_cycles::no_targets            0                       # number of cycles access was blocked
system.cpu15.icache.blocked::no_mshrs               0                       # number of cycles access was blocked
system.cpu15.icache.blocked::no_targets             0                       # number of cycles access was blocked
system.cpu15.icache.avg_blocked_cycles::no_mshrs          nan                       # average number of cycles each access was blocked
system.cpu15.icache.avg_blocked_cycles::no_targets          nan                       # average number of cycles each access was blocked
system.cpu15.icache.fast_writes                     0                       # number of fast writes performed
system.cpu15.icache.cache_copies                    0                       # number of cache copies performed
system.cpu15.icache.ReadReq_mshr_hits::switch_cpus15.inst            5                       # number of ReadReq MSHR hits
system.cpu15.icache.ReadReq_mshr_hits::total            5                       # number of ReadReq MSHR hits
system.cpu15.icache.demand_mshr_hits::switch_cpus15.inst            5                       # number of demand (read+write) MSHR hits
system.cpu15.icache.demand_mshr_hits::total            5                       # number of demand (read+write) MSHR hits
system.cpu15.icache.overall_mshr_hits::switch_cpus15.inst            5                       # number of overall MSHR hits
system.cpu15.icache.overall_mshr_hits::total            5                       # number of overall MSHR hits
system.cpu15.icache.ReadReq_mshr_misses::switch_cpus15.inst           27                       # number of ReadReq MSHR misses
system.cpu15.icache.ReadReq_mshr_misses::total           27                       # number of ReadReq MSHR misses
system.cpu15.icache.demand_mshr_misses::switch_cpus15.inst           27                       # number of demand (read+write) MSHR misses
system.cpu15.icache.demand_mshr_misses::total           27                       # number of demand (read+write) MSHR misses
system.cpu15.icache.overall_mshr_misses::switch_cpus15.inst           27                       # number of overall MSHR misses
system.cpu15.icache.overall_mshr_misses::total           27                       # number of overall MSHR misses
system.cpu15.icache.ReadReq_mshr_miss_latency::switch_cpus15.inst      4657664                       # number of ReadReq MSHR miss cycles
system.cpu15.icache.ReadReq_mshr_miss_latency::total      4657664                       # number of ReadReq MSHR miss cycles
system.cpu15.icache.demand_mshr_miss_latency::switch_cpus15.inst      4657664                       # number of demand (read+write) MSHR miss cycles
system.cpu15.icache.demand_mshr_miss_latency::total      4657664                       # number of demand (read+write) MSHR miss cycles
system.cpu15.icache.overall_mshr_miss_latency::switch_cpus15.inst      4657664                       # number of overall MSHR miss cycles
system.cpu15.icache.overall_mshr_miss_latency::total      4657664                       # number of overall MSHR miss cycles
system.cpu15.icache.ReadReq_mshr_miss_rate::switch_cpus15.inst     0.000209                       # mshr miss rate for ReadReq accesses
system.cpu15.icache.ReadReq_mshr_miss_rate::total     0.000209                       # mshr miss rate for ReadReq accesses
system.cpu15.icache.demand_mshr_miss_rate::switch_cpus15.inst     0.000209                       # mshr miss rate for demand accesses
system.cpu15.icache.demand_mshr_miss_rate::total     0.000209                       # mshr miss rate for demand accesses
system.cpu15.icache.overall_mshr_miss_rate::switch_cpus15.inst     0.000209                       # mshr miss rate for overall accesses
system.cpu15.icache.overall_mshr_miss_rate::total     0.000209                       # mshr miss rate for overall accesses
system.cpu15.icache.ReadReq_avg_mshr_miss_latency::switch_cpus15.inst 172506.074074                       # average ReadReq mshr miss latency
system.cpu15.icache.ReadReq_avg_mshr_miss_latency::total 172506.074074                       # average ReadReq mshr miss latency
system.cpu15.icache.demand_avg_mshr_miss_latency::switch_cpus15.inst 172506.074074                       # average overall mshr miss latency
system.cpu15.icache.demand_avg_mshr_miss_latency::total 172506.074074                       # average overall mshr miss latency
system.cpu15.icache.overall_avg_mshr_miss_latency::switch_cpus15.inst 172506.074074                       # average overall mshr miss latency
system.cpu15.icache.overall_avg_mshr_miss_latency::total 172506.074074                       # average overall mshr miss latency
system.cpu15.icache.no_allocate_misses              0                       # Number of misses that were no-allocate
system.cpu15.dcache.replacements                  599                       # number of replacements
system.cpu15.dcache.tagsinuse                     256                       # Cycle average of tags in use
system.cpu15.dcache.total_refs              150603811                       # Total number of references to valid blocks.
system.cpu15.dcache.sampled_refs                  855                       # Sample count of references to valid blocks.
system.cpu15.dcache.avg_refs             176144.808187                       # Average number of references to valid blocks.
system.cpu15.dcache.warmup_cycle                    0                       # Cycle when the warmup percentage was hit.
system.cpu15.dcache.occ_blocks::switch_cpus15.data   157.216204                       # Average occupied blocks per requestor
system.cpu15.dcache.occ_blocks::cpu15.data    98.783796                       # Average occupied blocks per requestor
system.cpu15.dcache.occ_percent::switch_cpus15.data     0.614126                       # Average percentage of cache occupancy
system.cpu15.dcache.occ_percent::cpu15.data     0.385874                       # Average percentage of cache occupancy
system.cpu15.dcache.occ_percent::total              1                       # Average percentage of cache occupancy
system.cpu15.dcache.ReadReq_hits::switch_cpus15.data       180372                       # number of ReadReq hits
system.cpu15.dcache.ReadReq_hits::total        180372                       # number of ReadReq hits
system.cpu15.dcache.WriteReq_hits::switch_cpus15.data        38298                       # number of WriteReq hits
system.cpu15.dcache.WriteReq_hits::total        38298                       # number of WriteReq hits
system.cpu15.dcache.LoadLockedReq_hits::switch_cpus15.data           92                       # number of LoadLockedReq hits
system.cpu15.dcache.LoadLockedReq_hits::total           92                       # number of LoadLockedReq hits
system.cpu15.dcache.StoreCondReq_hits::switch_cpus15.data           91                       # number of StoreCondReq hits
system.cpu15.dcache.StoreCondReq_hits::total           91                       # number of StoreCondReq hits
system.cpu15.dcache.demand_hits::switch_cpus15.data       218670                       # number of demand (read+write) hits
system.cpu15.dcache.demand_hits::total         218670                       # number of demand (read+write) hits
system.cpu15.dcache.overall_hits::switch_cpus15.data       218670                       # number of overall hits
system.cpu15.dcache.overall_hits::total        218670                       # number of overall hits
system.cpu15.dcache.ReadReq_misses::switch_cpus15.data         2045                       # number of ReadReq misses
system.cpu15.dcache.ReadReq_misses::total         2045                       # number of ReadReq misses
system.cpu15.dcache.WriteReq_misses::switch_cpus15.data           15                       # number of WriteReq misses
system.cpu15.dcache.WriteReq_misses::total           15                       # number of WriteReq misses
system.cpu15.dcache.demand_misses::switch_cpus15.data         2060                       # number of demand (read+write) misses
system.cpu15.dcache.demand_misses::total         2060                       # number of demand (read+write) misses
system.cpu15.dcache.overall_misses::switch_cpus15.data         2060                       # number of overall misses
system.cpu15.dcache.overall_misses::total         2060                       # number of overall misses
system.cpu15.dcache.ReadReq_miss_latency::switch_cpus15.data    221716766                       # number of ReadReq miss cycles
system.cpu15.dcache.ReadReq_miss_latency::total    221716766                       # number of ReadReq miss cycles
system.cpu15.dcache.WriteReq_miss_latency::switch_cpus15.data      1385687                       # number of WriteReq miss cycles
system.cpu15.dcache.WriteReq_miss_latency::total      1385687                       # number of WriteReq miss cycles
system.cpu15.dcache.demand_miss_latency::switch_cpus15.data    223102453                       # number of demand (read+write) miss cycles
system.cpu15.dcache.demand_miss_latency::total    223102453                       # number of demand (read+write) miss cycles
system.cpu15.dcache.overall_miss_latency::switch_cpus15.data    223102453                       # number of overall miss cycles
system.cpu15.dcache.overall_miss_latency::total    223102453                       # number of overall miss cycles
system.cpu15.dcache.ReadReq_accesses::switch_cpus15.data       182417                       # number of ReadReq accesses(hits+misses)
system.cpu15.dcache.ReadReq_accesses::total       182417                       # number of ReadReq accesses(hits+misses)
system.cpu15.dcache.WriteReq_accesses::switch_cpus15.data        38313                       # number of WriteReq accesses(hits+misses)
system.cpu15.dcache.WriteReq_accesses::total        38313                       # number of WriteReq accesses(hits+misses)
system.cpu15.dcache.LoadLockedReq_accesses::switch_cpus15.data           92                       # number of LoadLockedReq accesses(hits+misses)
system.cpu15.dcache.LoadLockedReq_accesses::total           92                       # number of LoadLockedReq accesses(hits+misses)
system.cpu15.dcache.StoreCondReq_accesses::switch_cpus15.data           91                       # number of StoreCondReq accesses(hits+misses)
system.cpu15.dcache.StoreCondReq_accesses::total           91                       # number of StoreCondReq accesses(hits+misses)
system.cpu15.dcache.demand_accesses::switch_cpus15.data       220730                       # number of demand (read+write) accesses
system.cpu15.dcache.demand_accesses::total       220730                       # number of demand (read+write) accesses
system.cpu15.dcache.overall_accesses::switch_cpus15.data       220730                       # number of overall (read+write) accesses
system.cpu15.dcache.overall_accesses::total       220730                       # number of overall (read+write) accesses
system.cpu15.dcache.ReadReq_miss_rate::switch_cpus15.data     0.011211                       # miss rate for ReadReq accesses
system.cpu15.dcache.ReadReq_miss_rate::total     0.011211                       # miss rate for ReadReq accesses
system.cpu15.dcache.WriteReq_miss_rate::switch_cpus15.data     0.000392                       # miss rate for WriteReq accesses
system.cpu15.dcache.WriteReq_miss_rate::total     0.000392                       # miss rate for WriteReq accesses
system.cpu15.dcache.demand_miss_rate::switch_cpus15.data     0.009333                       # miss rate for demand accesses
system.cpu15.dcache.demand_miss_rate::total     0.009333                       # miss rate for demand accesses
system.cpu15.dcache.overall_miss_rate::switch_cpus15.data     0.009333                       # miss rate for overall accesses
system.cpu15.dcache.overall_miss_rate::total     0.009333                       # miss rate for overall accesses
system.cpu15.dcache.ReadReq_avg_miss_latency::switch_cpus15.data 108418.956479                       # average ReadReq miss latency
system.cpu15.dcache.ReadReq_avg_miss_latency::total 108418.956479                       # average ReadReq miss latency
system.cpu15.dcache.WriteReq_avg_miss_latency::switch_cpus15.data 92379.133333                       # average WriteReq miss latency
system.cpu15.dcache.WriteReq_avg_miss_latency::total 92379.133333                       # average WriteReq miss latency
system.cpu15.dcache.demand_avg_miss_latency::switch_cpus15.data 108302.161650                       # average overall miss latency
system.cpu15.dcache.demand_avg_miss_latency::total 108302.161650                       # average overall miss latency
system.cpu15.dcache.overall_avg_miss_latency::switch_cpus15.data 108302.161650                       # average overall miss latency
system.cpu15.dcache.overall_avg_miss_latency::total 108302.161650                       # average overall miss latency
system.cpu15.dcache.blocked_cycles::no_mshrs            0                       # number of cycles access was blocked
system.cpu15.dcache.blocked_cycles::no_targets            0                       # number of cycles access was blocked
system.cpu15.dcache.blocked::no_mshrs               0                       # number of cycles access was blocked
system.cpu15.dcache.blocked::no_targets             0                       # number of cycles access was blocked
system.cpu15.dcache.avg_blocked_cycles::no_mshrs          nan                       # average number of cycles each access was blocked
system.cpu15.dcache.avg_blocked_cycles::no_targets          nan                       # average number of cycles each access was blocked
system.cpu15.dcache.fast_writes                     0                       # number of fast writes performed
system.cpu15.dcache.cache_copies                    0                       # number of cache copies performed
system.cpu15.dcache.writebacks::writebacks           69                       # number of writebacks
system.cpu15.dcache.writebacks::total              69                       # number of writebacks
system.cpu15.dcache.ReadReq_mshr_hits::switch_cpus15.data         1449                       # number of ReadReq MSHR hits
system.cpu15.dcache.ReadReq_mshr_hits::total         1449                       # number of ReadReq MSHR hits
system.cpu15.dcache.WriteReq_mshr_hits::switch_cpus15.data           12                       # number of WriteReq MSHR hits
system.cpu15.dcache.WriteReq_mshr_hits::total           12                       # number of WriteReq MSHR hits
system.cpu15.dcache.demand_mshr_hits::switch_cpus15.data         1461                       # number of demand (read+write) MSHR hits
system.cpu15.dcache.demand_mshr_hits::total         1461                       # number of demand (read+write) MSHR hits
system.cpu15.dcache.overall_mshr_hits::switch_cpus15.data         1461                       # number of overall MSHR hits
system.cpu15.dcache.overall_mshr_hits::total         1461                       # number of overall MSHR hits
system.cpu15.dcache.ReadReq_mshr_misses::switch_cpus15.data          596                       # number of ReadReq MSHR misses
system.cpu15.dcache.ReadReq_mshr_misses::total          596                       # number of ReadReq MSHR misses
system.cpu15.dcache.WriteReq_mshr_misses::switch_cpus15.data            3                       # number of WriteReq MSHR misses
system.cpu15.dcache.WriteReq_mshr_misses::total            3                       # number of WriteReq MSHR misses
system.cpu15.dcache.demand_mshr_misses::switch_cpus15.data          599                       # number of demand (read+write) MSHR misses
system.cpu15.dcache.demand_mshr_misses::total          599                       # number of demand (read+write) MSHR misses
system.cpu15.dcache.overall_mshr_misses::switch_cpus15.data          599                       # number of overall MSHR misses
system.cpu15.dcache.overall_mshr_misses::total          599                       # number of overall MSHR misses
system.cpu15.dcache.ReadReq_mshr_miss_latency::switch_cpus15.data     61529432                       # number of ReadReq MSHR miss cycles
system.cpu15.dcache.ReadReq_mshr_miss_latency::total     61529432                       # number of ReadReq MSHR miss cycles
system.cpu15.dcache.WriteReq_mshr_miss_latency::switch_cpus15.data       224011                       # number of WriteReq MSHR miss cycles
system.cpu15.dcache.WriteReq_mshr_miss_latency::total       224011                       # number of WriteReq MSHR miss cycles
system.cpu15.dcache.demand_mshr_miss_latency::switch_cpus15.data     61753443                       # number of demand (read+write) MSHR miss cycles
system.cpu15.dcache.demand_mshr_miss_latency::total     61753443                       # number of demand (read+write) MSHR miss cycles
system.cpu15.dcache.overall_mshr_miss_latency::switch_cpus15.data     61753443                       # number of overall MSHR miss cycles
system.cpu15.dcache.overall_mshr_miss_latency::total     61753443                       # number of overall MSHR miss cycles
system.cpu15.dcache.ReadReq_mshr_miss_rate::switch_cpus15.data     0.003267                       # mshr miss rate for ReadReq accesses
system.cpu15.dcache.ReadReq_mshr_miss_rate::total     0.003267                       # mshr miss rate for ReadReq accesses
system.cpu15.dcache.WriteReq_mshr_miss_rate::switch_cpus15.data     0.000078                       # mshr miss rate for WriteReq accesses
system.cpu15.dcache.WriteReq_mshr_miss_rate::total     0.000078                       # mshr miss rate for WriteReq accesses
system.cpu15.dcache.demand_mshr_miss_rate::switch_cpus15.data     0.002714                       # mshr miss rate for demand accesses
system.cpu15.dcache.demand_mshr_miss_rate::total     0.002714                       # mshr miss rate for demand accesses
system.cpu15.dcache.overall_mshr_miss_rate::switch_cpus15.data     0.002714                       # mshr miss rate for overall accesses
system.cpu15.dcache.overall_mshr_miss_rate::total     0.002714                       # mshr miss rate for overall accesses
system.cpu15.dcache.ReadReq_avg_mshr_miss_latency::switch_cpus15.data 103237.302013                       # average ReadReq mshr miss latency
system.cpu15.dcache.ReadReq_avg_mshr_miss_latency::total 103237.302013                       # average ReadReq mshr miss latency
system.cpu15.dcache.WriteReq_avg_mshr_miss_latency::switch_cpus15.data 74670.333333                       # average WriteReq mshr miss latency
system.cpu15.dcache.WriteReq_avg_mshr_miss_latency::total 74670.333333                       # average WriteReq mshr miss latency
system.cpu15.dcache.demand_avg_mshr_miss_latency::switch_cpus15.data 103094.228715                       # average overall mshr miss latency
system.cpu15.dcache.demand_avg_mshr_miss_latency::total 103094.228715                       # average overall mshr miss latency
system.cpu15.dcache.overall_avg_mshr_miss_latency::switch_cpus15.data 103094.228715                       # average overall mshr miss latency
system.cpu15.dcache.overall_avg_mshr_miss_latency::total 103094.228715                       # average overall mshr miss latency
system.cpu15.dcache.no_allocate_misses              0                       # Number of misses that were no-allocate

---------- End Simulation Statistics   ----------
