
---------- Begin Simulation Statistics ----------
sim_seconds                                  0.035888                       # Number of seconds simulated
sim_ticks                                 35888214705                       # Number of ticks simulated
final_tick                               565452594642                       # Number of ticks from beginning of simulation (restored from checkpoints and never reset)
sim_freq                                 1000000000000                       # Frequency of simulated ticks
host_inst_rate                                 261303                       # Simulator instruction rate (inst/s)
host_op_rate                                   336247                       # Simulator op (including micro ops) rate (op/s)
host_tick_rate                                2164354                       # Simulator tick rate (ticks/s)
host_mem_usage                               16918436                       # Number of bytes of host memory used
host_seconds                                 16581.49                       # Real time elapsed on the host
sim_insts                                  4332796961                       # Number of instructions simulated
sim_ops                                    5575480651                       # Number of ops (including micro ops) simulated
system.physmem.bytes_read::switch_cpus0.inst         1280                       # Number of bytes read from this memory
system.physmem.bytes_read::switch_cpus0.data      3400576                       # Number of bytes read from this memory
system.physmem.bytes_read::switch_cpus1.inst         1920                       # Number of bytes read from this memory
system.physmem.bytes_read::switch_cpus1.data      2796160                       # Number of bytes read from this memory
system.physmem.bytes_read::switch_cpus2.inst         2176                       # Number of bytes read from this memory
system.physmem.bytes_read::switch_cpus2.data      1322752                       # Number of bytes read from this memory
system.physmem.bytes_read::switch_cpus3.inst         1664                       # Number of bytes read from this memory
system.physmem.bytes_read::switch_cpus3.data      2313728                       # Number of bytes read from this memory
system.physmem.bytes_read::total              9840256                       # Number of bytes read from this memory
system.physmem.bytes_inst_read::switch_cpus0.inst         1280                       # Number of instructions bytes read from this memory
system.physmem.bytes_inst_read::switch_cpus1.inst         1920                       # Number of instructions bytes read from this memory
system.physmem.bytes_inst_read::switch_cpus2.inst         2176                       # Number of instructions bytes read from this memory
system.physmem.bytes_inst_read::switch_cpus3.inst         1664                       # Number of instructions bytes read from this memory
system.physmem.bytes_inst_read::total            7040                       # Number of instructions bytes read from this memory
system.physmem.bytes_written::writebacks      3051392                       # Number of bytes written to this memory
system.physmem.bytes_written::total           3051392                       # Number of bytes written to this memory
system.physmem.num_reads::switch_cpus0.inst           10                       # Number of read requests responded to by this memory
system.physmem.num_reads::switch_cpus0.data        26567                       # Number of read requests responded to by this memory
system.physmem.num_reads::switch_cpus1.inst           15                       # Number of read requests responded to by this memory
system.physmem.num_reads::switch_cpus1.data        21845                       # Number of read requests responded to by this memory
system.physmem.num_reads::switch_cpus2.inst           17                       # Number of read requests responded to by this memory
system.physmem.num_reads::switch_cpus2.data        10334                       # Number of read requests responded to by this memory
system.physmem.num_reads::switch_cpus3.inst           13                       # Number of read requests responded to by this memory
system.physmem.num_reads::switch_cpus3.data        18076                       # Number of read requests responded to by this memory
system.physmem.num_reads::total                 76877                       # Number of read requests responded to by this memory
system.physmem.num_writes::writebacks           23839                       # Number of write requests responded to by this memory
system.physmem.num_writes::functional               0                       # Number of write requests responded to by this memory
system.physmem.num_writes::interrupt                0                       # Number of write requests responded to by this memory
system.physmem.num_writes::switch_cpus0.dtb.walker            0                       # Number of write requests responded to by this memory
system.physmem.num_writes::switch_cpus0.itb.walker            0                       # Number of write requests responded to by this memory
system.physmem.num_writes::switch_cpus0.inst            0                       # Number of write requests responded to by this memory
system.physmem.num_writes::switch_cpus0.data            0                       # Number of write requests responded to by this memory
system.physmem.num_writes::switch_cpus1.dtb.walker            0                       # Number of write requests responded to by this memory
system.physmem.num_writes::switch_cpus1.itb.walker            0                       # Number of write requests responded to by this memory
system.physmem.num_writes::switch_cpus1.inst            0                       # Number of write requests responded to by this memory
system.physmem.num_writes::switch_cpus1.data            0                       # Number of write requests responded to by this memory
system.physmem.num_writes::switch_cpus2.dtb.walker            0                       # Number of write requests responded to by this memory
system.physmem.num_writes::switch_cpus2.itb.walker            0                       # Number of write requests responded to by this memory
system.physmem.num_writes::switch_cpus2.inst            0                       # Number of write requests responded to by this memory
system.physmem.num_writes::switch_cpus2.data            0                       # Number of write requests responded to by this memory
system.physmem.num_writes::switch_cpus3.dtb.walker            0                       # Number of write requests responded to by this memory
system.physmem.num_writes::switch_cpus3.itb.walker            0                       # Number of write requests responded to by this memory
system.physmem.num_writes::switch_cpus3.inst            0                       # Number of write requests responded to by this memory
system.physmem.num_writes::switch_cpus3.data            0                       # Number of write requests responded to by this memory
system.physmem.num_writes::cpu0.dtb.walker            0                       # Number of write requests responded to by this memory
system.physmem.num_writes::cpu0.itb.walker            0                       # Number of write requests responded to by this memory
system.physmem.num_writes::cpu0.inst                0                       # Number of write requests responded to by this memory
system.physmem.num_writes::cpu0.data                0                       # Number of write requests responded to by this memory
system.physmem.num_writes::cpu1.dtb.walker            0                       # Number of write requests responded to by this memory
system.physmem.num_writes::cpu1.itb.walker            0                       # Number of write requests responded to by this memory
system.physmem.num_writes::cpu1.inst                0                       # Number of write requests responded to by this memory
system.physmem.num_writes::cpu1.data                0                       # Number of write requests responded to by this memory
system.physmem.num_writes::cpu2.dtb.walker            0                       # Number of write requests responded to by this memory
system.physmem.num_writes::cpu2.itb.walker            0                       # Number of write requests responded to by this memory
system.physmem.num_writes::cpu2.inst                0                       # Number of write requests responded to by this memory
system.physmem.num_writes::cpu2.data                0                       # Number of write requests responded to by this memory
system.physmem.num_writes::cpu3.dtb.walker            0                       # Number of write requests responded to by this memory
system.physmem.num_writes::cpu3.itb.walker            0                       # Number of write requests responded to by this memory
system.physmem.num_writes::cpu3.inst                0                       # Number of write requests responded to by this memory
system.physmem.num_writes::cpu3.data                0                       # Number of write requests responded to by this memory
system.physmem.num_writes::total                23839                       # Number of write requests responded to by this memory
system.physmem.bw_read::switch_cpus0.inst        35666                       # Total read bandwidth from this memory (bytes/s)
system.physmem.bw_read::switch_cpus0.data     94754672                       # Total read bandwidth from this memory (bytes/s)
system.physmem.bw_read::switch_cpus1.inst        53499                       # Total read bandwidth from this memory (bytes/s)
system.physmem.bw_read::switch_cpus1.data     77913043                       # Total read bandwidth from this memory (bytes/s)
system.physmem.bw_read::switch_cpus2.inst        60633                       # Total read bandwidth from this memory (bytes/s)
system.physmem.bw_read::switch_cpus2.data     36857559                       # Total read bandwidth from this memory (bytes/s)
system.physmem.bw_read::switch_cpus3.inst        46366                       # Total read bandwidth from this memory (bytes/s)
system.physmem.bw_read::switch_cpus3.data     64470412                       # Total read bandwidth from this memory (bytes/s)
system.physmem.bw_read::total               274191850                       # Total read bandwidth from this memory (bytes/s)
system.physmem.bw_inst_read::switch_cpus0.inst        35666                       # Instruction read bandwidth from this memory (bytes/s)
system.physmem.bw_inst_read::switch_cpus1.inst        53499                       # Instruction read bandwidth from this memory (bytes/s)
system.physmem.bw_inst_read::switch_cpus2.inst        60633                       # Instruction read bandwidth from this memory (bytes/s)
system.physmem.bw_inst_read::switch_cpus3.inst        46366                       # Instruction read bandwidth from this memory (bytes/s)
system.physmem.bw_inst_read::total             196165                       # Instruction read bandwidth from this memory (bytes/s)
system.physmem.bw_write::writebacks          85024904                       # Write bandwidth from this memory (bytes/s)
system.physmem.bw_write::total               85024904                       # Write bandwidth from this memory (bytes/s)
system.physmem.bw_total::writebacks          85024904                       # Total bandwidth to/from this memory (bytes/s)
system.physmem.bw_total::switch_cpus0.inst        35666                       # Total bandwidth to/from this memory (bytes/s)
system.physmem.bw_total::switch_cpus0.data     94754672                       # Total bandwidth to/from this memory (bytes/s)
system.physmem.bw_total::switch_cpus1.inst        53499                       # Total bandwidth to/from this memory (bytes/s)
system.physmem.bw_total::switch_cpus1.data     77913043                       # Total bandwidth to/from this memory (bytes/s)
system.physmem.bw_total::switch_cpus2.inst        60633                       # Total bandwidth to/from this memory (bytes/s)
system.physmem.bw_total::switch_cpus2.data     36857559                       # Total bandwidth to/from this memory (bytes/s)
system.physmem.bw_total::switch_cpus3.inst        46366                       # Total bandwidth to/from this memory (bytes/s)
system.physmem.bw_total::switch_cpus3.data     64470412                       # Total bandwidth to/from this memory (bytes/s)
system.physmem.bw_total::total              359216754                       # Total bandwidth to/from this memory (bytes/s)
system.switch_cpus0.dtb.inst_hits                   0                       # ITB inst hits
system.switch_cpus0.dtb.inst_misses                 0                       # ITB inst misses
system.switch_cpus0.dtb.read_hits                   0                       # DTB read hits
system.switch_cpus0.dtb.read_misses                 0                       # DTB read misses
system.switch_cpus0.dtb.write_hits                  0                       # DTB write hits
system.switch_cpus0.dtb.write_misses                0                       # DTB write misses
system.switch_cpus0.dtb.flush_tlb                   0                       # Number of times complete TLB was flushed
system.switch_cpus0.dtb.flush_tlb_mva               0                       # Number of times TLB was flushed by MVA
system.switch_cpus0.dtb.flush_tlb_mva_asid            0                       # Number of times TLB was flushed by MVA & ASID
system.switch_cpus0.dtb.flush_tlb_asid              0                       # Number of times TLB was flushed by ASID
system.switch_cpus0.dtb.flush_entries               0                       # Number of entries that have been flushed from TLB
system.switch_cpus0.dtb.align_faults                0                       # Number of TLB faults due to alignment restrictions
system.switch_cpus0.dtb.prefetch_faults             0                       # Number of TLB faults due to prefetch
system.switch_cpus0.dtb.domain_faults               0                       # Number of TLB faults due to domain restrictions
system.switch_cpus0.dtb.perms_faults                0                       # Number of TLB faults due to permissions restrictions
system.switch_cpus0.dtb.read_accesses               0                       # DTB read accesses
system.switch_cpus0.dtb.write_accesses              0                       # DTB write accesses
system.switch_cpus0.dtb.inst_accesses               0                       # ITB inst accesses
system.switch_cpus0.dtb.hits                        0                       # DTB hits
system.switch_cpus0.dtb.misses                      0                       # DTB misses
system.switch_cpus0.dtb.accesses                    0                       # DTB accesses
system.switch_cpus0.itb.inst_hits                   0                       # ITB inst hits
system.switch_cpus0.itb.inst_misses                 0                       # ITB inst misses
system.switch_cpus0.itb.read_hits                   0                       # DTB read hits
system.switch_cpus0.itb.read_misses                 0                       # DTB read misses
system.switch_cpus0.itb.write_hits                  0                       # DTB write hits
system.switch_cpus0.itb.write_misses                0                       # DTB write misses
system.switch_cpus0.itb.flush_tlb                   0                       # Number of times complete TLB was flushed
system.switch_cpus0.itb.flush_tlb_mva               0                       # Number of times TLB was flushed by MVA
system.switch_cpus0.itb.flush_tlb_mva_asid            0                       # Number of times TLB was flushed by MVA & ASID
system.switch_cpus0.itb.flush_tlb_asid              0                       # Number of times TLB was flushed by ASID
system.switch_cpus0.itb.flush_entries               0                       # Number of entries that have been flushed from TLB
system.switch_cpus0.itb.align_faults                0                       # Number of TLB faults due to alignment restrictions
system.switch_cpus0.itb.prefetch_faults             0                       # Number of TLB faults due to prefetch
system.switch_cpus0.itb.domain_faults               0                       # Number of TLB faults due to domain restrictions
system.switch_cpus0.itb.perms_faults                0                       # Number of TLB faults due to permissions restrictions
system.switch_cpus0.itb.read_accesses               0                       # DTB read accesses
system.switch_cpus0.itb.write_accesses              0                       # DTB write accesses
system.switch_cpus0.itb.inst_accesses               0                       # ITB inst accesses
system.switch_cpus0.itb.hits                        0                       # DTB hits
system.switch_cpus0.itb.misses                      0                       # DTB misses
system.switch_cpus0.itb.accesses                    0                       # DTB accesses
system.cpu0.workload.num_syscalls                   0                       # Number of system calls
system.switch_cpus0.numCycles                86062866                       # number of cpu cycles simulated
system.switch_cpus0.numWorkItemsStarted             0                       # number of work items this cpu started
system.switch_cpus0.numWorkItemsCompleted            0                       # number of work items this cpu completed
system.switch_cpus0.BPredUnit.lookups        30987974                       # Number of BP lookups
system.switch_cpus0.BPredUnit.condPredicted     25419188                       # Number of conditional branches predicted
system.switch_cpus0.BPredUnit.condIncorrect      2013573                       # Number of conditional branches incorrect
system.switch_cpus0.BPredUnit.BTBLookups     13112588                       # Number of BTB lookups
system.switch_cpus0.BPredUnit.BTBHits        12094767                       # Number of BTB hits
system.switch_cpus0.BPredUnit.BTBCorrect            0                       # Number of correct BTB predictions (this stat may not work properly.
system.switch_cpus0.BPredUnit.usedRAS         3161970                       # Number of times the RAS was used to get a target.
system.switch_cpus0.BPredUnit.RASInCorrect        87368                       # Number of incorrect RAS predictions.
system.switch_cpus0.fetch.icacheStallCycles     32002264                       # Number of cycles fetch is stalled on an Icache miss
system.switch_cpus0.fetch.Insts             170054435                       # Number of instructions fetch has processed
system.switch_cpus0.fetch.Branches           30987974                       # Number of branches that fetch encountered
system.switch_cpus0.fetch.predictedBranches     15256737                       # Number of branches that fetch has predicted taken
system.switch_cpus0.fetch.Cycles             36563804                       # Number of cycles fetch has run and was not squashing or blocked
system.switch_cpus0.fetch.SquashCycles       10791152                       # Number of cycles fetch has spent squashing
system.switch_cpus0.fetch.BlockedCycles       7031887                       # Number of cycles fetch has spent blocked
system.switch_cpus0.fetch.PendingTrapStallCycles            1                       # Number of stall cycles due to pending traps
system.switch_cpus0.fetch.CacheLines         15658981                       # Number of cache lines fetched
system.switch_cpus0.fetch.IcacheSquashes       806845                       # Number of outstanding Icache misses that were squashed
system.switch_cpus0.fetch.rateDist::samples     84343359                       # Number of instructions fetched each cycle (Total)
system.switch_cpus0.fetch.rateDist::mean     2.478191                       # Number of instructions fetched each cycle (Total)
system.switch_cpus0.fetch.rateDist::stdev     3.330344                       # Number of instructions fetched each cycle (Total)
system.switch_cpus0.fetch.rateDist::underflows            0      0.00%      0.00% # Number of instructions fetched each cycle (Total)
system.switch_cpus0.fetch.rateDist::0        47779555     56.65%     56.65% # Number of instructions fetched each cycle (Total)
system.switch_cpus0.fetch.rateDist::1         3649536      4.33%     60.98% # Number of instructions fetched each cycle (Total)
system.switch_cpus0.fetch.rateDist::2         3199124      3.79%     64.77% # Number of instructions fetched each cycle (Total)
system.switch_cpus0.fetch.rateDist::3         3436925      4.07%     68.84% # Number of instructions fetched each cycle (Total)
system.switch_cpus0.fetch.rateDist::4         3018544      3.58%     72.42% # Number of instructions fetched each cycle (Total)
system.switch_cpus0.fetch.rateDist::5         1579420      1.87%     74.30% # Number of instructions fetched each cycle (Total)
system.switch_cpus0.fetch.rateDist::6         1027219      1.22%     75.51% # Number of instructions fetched each cycle (Total)
system.switch_cpus0.fetch.rateDist::7         2698497      3.20%     78.71% # Number of instructions fetched each cycle (Total)
system.switch_cpus0.fetch.rateDist::8        17954539     21.29%    100.00% # Number of instructions fetched each cycle (Total)
system.switch_cpus0.fetch.rateDist::overflows            0      0.00%    100.00% # Number of instructions fetched each cycle (Total)
system.switch_cpus0.fetch.rateDist::min_value            0                       # Number of instructions fetched each cycle (Total)
system.switch_cpus0.fetch.rateDist::max_value            8                       # Number of instructions fetched each cycle (Total)
system.switch_cpus0.fetch.rateDist::total     84343359                       # Number of instructions fetched each cycle (Total)
system.switch_cpus0.fetch.branchRate         0.360062                       # Number of branch fetches per cycle
system.switch_cpus0.fetch.rate               1.975933                       # Number of inst fetches per cycle
system.switch_cpus0.decode.IdleCycles        33669233                       # Number of cycles decode is idle
system.switch_cpus0.decode.BlockedCycles      6610851                       # Number of cycles decode is blocked
system.switch_cpus0.decode.RunCycles         34778622                       # Number of cycles decode is running
system.switch_cpus0.decode.UnblockCycles       545705                       # Number of cycles decode is unblocking
system.switch_cpus0.decode.SquashCycles       8738939                       # Number of cycles decode is squashing
system.switch_cpus0.decode.BranchResolved      5075821                       # Number of times decode resolved a branch
system.switch_cpus0.decode.BranchMispred         6609                       # Number of times decode detected a branch misprediction
system.switch_cpus0.decode.DecodedInsts     201723307                       # Number of instructions handled by decode
system.switch_cpus0.decode.SquashedInsts        51161                       # Number of squashed instructions handled by decode
system.switch_cpus0.rename.SquashCycles       8738939                       # Number of cycles rename is squashing
system.switch_cpus0.rename.IdleCycles        35331409                       # Number of cycles rename is idle
system.switch_cpus0.rename.BlockCycles        3029813                       # Number of cycles rename is blocking
system.switch_cpus0.rename.serializeStallCycles       882946                       # count of cycles rename stalled for serializing inst
system.switch_cpus0.rename.RunCycles         33632361                       # Number of cycles rename is running
system.switch_cpus0.rename.UnblockCycles      2727883                       # Number of cycles rename is unblocking
system.switch_cpus0.rename.RenamedInsts     194911921                       # Number of instructions processed by rename
system.switch_cpus0.rename.ROBFullEvents        11559                       # Number of times rename has blocked due to ROB full
system.switch_cpus0.rename.IQFullEvents       1709085                       # Number of times rename has blocked due to IQ full
system.switch_cpus0.rename.LSQFullEvents       747522                       # Number of times rename has blocked due to LSQ full
system.switch_cpus0.rename.FullRegisterEvents          146                       # Number of times there has been no free registers
system.switch_cpus0.rename.RenamedOperands    270657114                       # Number of destination operands rename has renamed
system.switch_cpus0.rename.RenameLookups    908863774                       # Number of register rename lookups that rename has made
system.switch_cpus0.rename.int_rename_lookups    908863774                       # Number of integer rename lookups
system.switch_cpus0.rename.CommittedMaps    168259218                       # Number of HB maps that are committed
system.switch_cpus0.rename.UndoneMaps       102397850                       # Number of HB maps that are undone due to squashing
system.switch_cpus0.rename.serializingInsts        33938                       # count of serializing insts renamed
system.switch_cpus0.rename.tempSerializingInsts        17916                       # count of temporary serializing insts renamed
system.switch_cpus0.rename.skidInsts          7234896                       # count of insts added to the skid buffer
system.switch_cpus0.memDep0.insertedLoads     19242557                       # Number of loads inserted to the mem dependence unit.
system.switch_cpus0.memDep0.insertedStores     10026469                       # Number of stores inserted to the mem dependence unit.
system.switch_cpus0.memDep0.conflictingLoads       242502                       # Number of conflicting loads.
system.switch_cpus0.memDep0.conflictingStores      3147824                       # Number of conflicting stores.
system.switch_cpus0.iq.iqInstsAdded         183828365                       # Number of instructions added to the IQ (excludes non-spec)
system.switch_cpus0.iq.iqNonSpecInstsAdded        33925                       # Number of non-speculative instructions added to the IQ
system.switch_cpus0.iq.iqInstsIssued        147741669                       # Number of instructions issued
system.switch_cpus0.iq.iqSquashedInstsIssued       283445                       # Number of squashed instructions issued
system.switch_cpus0.iq.iqSquashedInstsExamined     60930995                       # Number of squashed instructions iterated over during squash; mainly for profiling
system.switch_cpus0.iq.iqSquashedOperandsExamined    186199793                       # Number of squashed operands that are examined and possibly removed from graph
system.switch_cpus0.iq.iqSquashedNonSpecRemoved         1881                       # Number of squashed non-spec instructions that were removed
system.switch_cpus0.iq.issued_per_cycle::samples     84343359                       # Number of insts issued each cycle
system.switch_cpus0.iq.issued_per_cycle::mean     1.751669                       # Number of insts issued each cycle
system.switch_cpus0.iq.issued_per_cycle::stdev     1.909066                       # Number of insts issued each cycle
system.switch_cpus0.iq.issued_per_cycle::underflows            0      0.00%      0.00% # Number of insts issued each cycle
system.switch_cpus0.iq.issued_per_cycle::0     30152900     35.75%     35.75% # Number of insts issued each cycle
system.switch_cpus0.iq.issued_per_cycle::1     17859672     21.17%     56.93% # Number of insts issued each cycle
system.switch_cpus0.iq.issued_per_cycle::2     11941240     14.16%     71.08% # Number of insts issued each cycle
system.switch_cpus0.iq.issued_per_cycle::3      7617371      9.03%     80.11% # Number of insts issued each cycle
system.switch_cpus0.iq.issued_per_cycle::4      7558613      8.96%     89.08% # Number of insts issued each cycle
system.switch_cpus0.iq.issued_per_cycle::5      4428352      5.25%     94.33% # Number of insts issued each cycle
system.switch_cpus0.iq.issued_per_cycle::6      3381453      4.01%     98.34% # Number of insts issued each cycle
system.switch_cpus0.iq.issued_per_cycle::7       747590      0.89%     99.22% # Number of insts issued each cycle
system.switch_cpus0.iq.issued_per_cycle::8       656168      0.78%    100.00% # Number of insts issued each cycle
system.switch_cpus0.iq.issued_per_cycle::overflows            0      0.00%    100.00% # Number of insts issued each cycle
system.switch_cpus0.iq.issued_per_cycle::min_value            0                       # Number of insts issued each cycle
system.switch_cpus0.iq.issued_per_cycle::max_value            8                       # Number of insts issued each cycle
system.switch_cpus0.iq.issued_per_cycle::total     84343359                       # Number of insts issued each cycle
system.switch_cpus0.iq.fu_full::No_OpClass            0      0.00%      0.00% # attempts to use FU when none available
system.switch_cpus0.iq.fu_full::IntAlu        1083202     70.11%     70.11% # attempts to use FU when none available
system.switch_cpus0.iq.fu_full::IntMult            40      0.00%     70.11% # attempts to use FU when none available
system.switch_cpus0.iq.fu_full::IntDiv              0      0.00%     70.11% # attempts to use FU when none available
system.switch_cpus0.iq.fu_full::FloatAdd            0      0.00%     70.11% # attempts to use FU when none available
system.switch_cpus0.iq.fu_full::FloatCmp            0      0.00%     70.11% # attempts to use FU when none available
system.switch_cpus0.iq.fu_full::FloatCvt            0      0.00%     70.11% # attempts to use FU when none available
system.switch_cpus0.iq.fu_full::FloatMult            0      0.00%     70.11% # attempts to use FU when none available
system.switch_cpus0.iq.fu_full::FloatDiv            0      0.00%     70.11% # attempts to use FU when none available
system.switch_cpus0.iq.fu_full::FloatSqrt            0      0.00%     70.11% # attempts to use FU when none available
system.switch_cpus0.iq.fu_full::SimdAdd             0      0.00%     70.11% # attempts to use FU when none available
system.switch_cpus0.iq.fu_full::SimdAddAcc            0      0.00%     70.11% # attempts to use FU when none available
system.switch_cpus0.iq.fu_full::SimdAlu             0      0.00%     70.11% # attempts to use FU when none available
system.switch_cpus0.iq.fu_full::SimdCmp             0      0.00%     70.11% # attempts to use FU when none available
system.switch_cpus0.iq.fu_full::SimdCvt             0      0.00%     70.11% # attempts to use FU when none available
system.switch_cpus0.iq.fu_full::SimdMisc            0      0.00%     70.11% # attempts to use FU when none available
system.switch_cpus0.iq.fu_full::SimdMult            0      0.00%     70.11% # attempts to use FU when none available
system.switch_cpus0.iq.fu_full::SimdMultAcc            0      0.00%     70.11% # attempts to use FU when none available
system.switch_cpus0.iq.fu_full::SimdShift            0      0.00%     70.11% # attempts to use FU when none available
system.switch_cpus0.iq.fu_full::SimdShiftAcc            0      0.00%     70.11% # attempts to use FU when none available
system.switch_cpus0.iq.fu_full::SimdSqrt            0      0.00%     70.11% # attempts to use FU when none available
system.switch_cpus0.iq.fu_full::SimdFloatAdd            0      0.00%     70.11% # attempts to use FU when none available
system.switch_cpus0.iq.fu_full::SimdFloatAlu            0      0.00%     70.11% # attempts to use FU when none available
system.switch_cpus0.iq.fu_full::SimdFloatCmp            0      0.00%     70.11% # attempts to use FU when none available
system.switch_cpus0.iq.fu_full::SimdFloatCvt            0      0.00%     70.11% # attempts to use FU when none available
system.switch_cpus0.iq.fu_full::SimdFloatDiv            0      0.00%     70.11% # attempts to use FU when none available
system.switch_cpus0.iq.fu_full::SimdFloatMisc            0      0.00%     70.11% # attempts to use FU when none available
system.switch_cpus0.iq.fu_full::SimdFloatMult            0      0.00%     70.11% # attempts to use FU when none available
system.switch_cpus0.iq.fu_full::SimdFloatMultAcc            0      0.00%     70.11% # attempts to use FU when none available
system.switch_cpus0.iq.fu_full::SimdFloatSqrt            0      0.00%     70.11% # attempts to use FU when none available
system.switch_cpus0.iq.fu_full::MemRead        201664     13.05%     83.17% # attempts to use FU when none available
system.switch_cpus0.iq.fu_full::MemWrite       260050     16.83%    100.00% # attempts to use FU when none available
system.switch_cpus0.iq.fu_full::IprAccess            0      0.00%    100.00% # attempts to use FU when none available
system.switch_cpus0.iq.fu_full::InstPrefetch            0      0.00%    100.00% # attempts to use FU when none available
system.switch_cpus0.iq.FU_type_0::No_OpClass            0      0.00%      0.00% # Type of FU issued
system.switch_cpus0.iq.FU_type_0::IntAlu    121538577     82.26%     82.26% # Type of FU issued
system.switch_cpus0.iq.FU_type_0::IntMult      2012984      1.36%     83.63% # Type of FU issued
system.switch_cpus0.iq.FU_type_0::IntDiv            0      0.00%     83.63% # Type of FU issued
system.switch_cpus0.iq.FU_type_0::FloatAdd            0      0.00%     83.63% # Type of FU issued
system.switch_cpus0.iq.FU_type_0::FloatCmp            0      0.00%     83.63% # Type of FU issued
system.switch_cpus0.iq.FU_type_0::FloatCvt            0      0.00%     83.63% # Type of FU issued
system.switch_cpus0.iq.FU_type_0::FloatMult            0      0.00%     83.63% # Type of FU issued
system.switch_cpus0.iq.FU_type_0::FloatDiv            0      0.00%     83.63% # Type of FU issued
system.switch_cpus0.iq.FU_type_0::FloatSqrt            0      0.00%     83.63% # Type of FU issued
system.switch_cpus0.iq.FU_type_0::SimdAdd            0      0.00%     83.63% # Type of FU issued
system.switch_cpus0.iq.FU_type_0::SimdAddAcc            0      0.00%     83.63% # Type of FU issued
system.switch_cpus0.iq.FU_type_0::SimdAlu            0      0.00%     83.63% # Type of FU issued
system.switch_cpus0.iq.FU_type_0::SimdCmp            0      0.00%     83.63% # Type of FU issued
system.switch_cpus0.iq.FU_type_0::SimdCvt            0      0.00%     83.63% # Type of FU issued
system.switch_cpus0.iq.FU_type_0::SimdMisc            0      0.00%     83.63% # Type of FU issued
system.switch_cpus0.iq.FU_type_0::SimdMult            0      0.00%     83.63% # Type of FU issued
system.switch_cpus0.iq.FU_type_0::SimdMultAcc            0      0.00%     83.63% # Type of FU issued
system.switch_cpus0.iq.FU_type_0::SimdShift            0      0.00%     83.63% # Type of FU issued
system.switch_cpus0.iq.FU_type_0::SimdShiftAcc            0      0.00%     83.63% # Type of FU issued
system.switch_cpus0.iq.FU_type_0::SimdSqrt            0      0.00%     83.63% # Type of FU issued
system.switch_cpus0.iq.FU_type_0::SimdFloatAdd            0      0.00%     83.63% # Type of FU issued
system.switch_cpus0.iq.FU_type_0::SimdFloatAlu            0      0.00%     83.63% # Type of FU issued
system.switch_cpus0.iq.FU_type_0::SimdFloatCmp            0      0.00%     83.63% # Type of FU issued
system.switch_cpus0.iq.FU_type_0::SimdFloatCvt            0      0.00%     83.63% # Type of FU issued
system.switch_cpus0.iq.FU_type_0::SimdFloatDiv            0      0.00%     83.63% # Type of FU issued
system.switch_cpus0.iq.FU_type_0::SimdFloatMisc        16022      0.01%     83.64% # Type of FU issued
system.switch_cpus0.iq.FU_type_0::SimdFloatMult            0      0.00%     83.64% # Type of FU issued
system.switch_cpus0.iq.FU_type_0::SimdFloatMultAcc            0      0.00%     83.64% # Type of FU issued
system.switch_cpus0.iq.FU_type_0::SimdFloatSqrt            0      0.00%     83.64% # Type of FU issued
system.switch_cpus0.iq.FU_type_0::MemRead     15734189     10.65%     94.29% # Type of FU issued
system.switch_cpus0.iq.FU_type_0::MemWrite      8439897      5.71%    100.00% # Type of FU issued
system.switch_cpus0.iq.FU_type_0::IprAccess            0      0.00%    100.00% # Type of FU issued
system.switch_cpus0.iq.FU_type_0::InstPrefetch            0      0.00%    100.00% # Type of FU issued
system.switch_cpus0.iq.FU_type_0::total     147741669                       # Type of FU issued
system.switch_cpus0.iq.rate                  1.716671                       # Inst issue rate
system.switch_cpus0.iq.fu_busy_cnt            1544956                       # FU busy when requested
system.switch_cpus0.iq.fu_busy_rate          0.010457                       # FU busy rate (busy events/executed inst)
system.switch_cpus0.iq.int_inst_queue_reads    381655094                       # Number of integer instruction queue reads
system.switch_cpus0.iq.int_inst_queue_writes    244794343                       # Number of integer instruction queue writes
system.switch_cpus0.iq.int_inst_queue_wakeup_accesses    143589266                       # Number of integer instruction queue wakeup accesses
system.switch_cpus0.iq.fp_inst_queue_reads            0                       # Number of floating instruction queue reads
system.switch_cpus0.iq.fp_inst_queue_writes            0                       # Number of floating instruction queue writes
system.switch_cpus0.iq.fp_inst_queue_wakeup_accesses            0                       # Number of floating instruction queue wakeup accesses
system.switch_cpus0.iq.int_alu_accesses     149286625                       # Number of integer alu accesses
system.switch_cpus0.iq.fp_alu_accesses              0                       # Number of floating point alu accesses
system.switch_cpus0.iew.lsq.thread0.forwLoads       262875                       # Number of loads that had data forwarded from stores
system.switch_cpus0.iew.lsq.thread0.invAddrLoads            0                       # Number of loads ignored due to an invalid address
system.switch_cpus0.iew.lsq.thread0.squashedLoads      7030428                       # Number of loads squashed
system.switch_cpus0.iew.lsq.thread0.ignoredResponses          469                       # Number of memory responses ignored because the instruction is squashed
system.switch_cpus0.iew.lsq.thread0.memOrderViolation         1077                       # Number of memory ordering violations
system.switch_cpus0.iew.lsq.thread0.squashedStores      2284796                       # Number of stores squashed
system.switch_cpus0.iew.lsq.thread0.invAddrSwpfs            0                       # Number of software prefetches ignored due to an invalid address
system.switch_cpus0.iew.lsq.thread0.blockedLoads            0                       # Number of blocked loads due to partial load-store forwarding
system.switch_cpus0.iew.lsq.thread0.rescheduledLoads          575                       # Number of loads that were rescheduled
system.switch_cpus0.iew.lsq.thread0.cacheBlocked            0                       # Number of times an access to memory failed due to the cache being blocked
system.switch_cpus0.iew.iewIdleCycles               0                       # Number of cycles IEW is idle
system.switch_cpus0.iew.iewSquashCycles       8738939                       # Number of cycles IEW is squashing
system.switch_cpus0.iew.iewBlockCycles        2260200                       # Number of cycles IEW is blocking
system.switch_cpus0.iew.iewUnblockCycles       165529                       # Number of cycles IEW is unblocking
system.switch_cpus0.iew.iewDispatchedInsts    183862290                       # Number of instructions dispatched to IQ
system.switch_cpus0.iew.iewDispSquashedInsts       311455                       # Number of squashed instructions skipped by dispatch
system.switch_cpus0.iew.iewDispLoadInsts     19242557                       # Number of dispatched load instructions
system.switch_cpus0.iew.iewDispStoreInsts     10026469                       # Number of dispatched store instructions
system.switch_cpus0.iew.iewDispNonSpecInsts        17903                       # Number of dispatched non-speculative instructions
system.switch_cpus0.iew.iewIQFullEvents        120575                       # Number of times the IQ has become full, causing a stall
system.switch_cpus0.iew.iewLSQFullEvents         7864                       # Number of times the LSQ has become full, causing a stall
system.switch_cpus0.iew.memOrderViolationEvents         1077                       # Number of memory order violations
system.switch_cpus0.iew.predictedTakenIncorrect      1230819                       # Number of branches that were predicted taken incorrectly
system.switch_cpus0.iew.predictedNotTakenIncorrect      1127923                       # Number of branches that were predicted not taken incorrectly
system.switch_cpus0.iew.branchMispredicts      2358742                       # Number of branch mispredicts detected at execute
system.switch_cpus0.iew.iewExecutedInsts    145157634                       # Number of executed instructions
system.switch_cpus0.iew.iewExecLoadInsts     14792062                       # Number of load instructions executed
system.switch_cpus0.iew.iewExecSquashedInsts      2584031                       # Number of squashed instructions skipped in execute
system.switch_cpus0.iew.exec_swp                    0                       # number of swp insts executed
system.switch_cpus0.iew.exec_nop                    0                       # number of nop insts executed
system.switch_cpus0.iew.exec_refs            22989240                       # number of memory reference insts executed
system.switch_cpus0.iew.exec_branches        20579576                       # Number of branches executed
system.switch_cpus0.iew.exec_stores           8197178                       # Number of stores executed
system.switch_cpus0.iew.exec_rate            1.686647                       # Inst execution rate
system.switch_cpus0.iew.wb_sent             143734625                       # cumulative count of insts sent to commit
system.switch_cpus0.iew.wb_count            143589266                       # cumulative count of insts written-back
system.switch_cpus0.iew.wb_producers         93677031                       # num instructions producing a value
system.switch_cpus0.iew.wb_consumers        261640717                       # num instructions consuming a value
system.switch_cpus0.iew.wb_penalized                0                       # number of instrctions required to write to 'other' IQ
system.switch_cpus0.iew.wb_rate              1.668423                       # insts written-back per cycle
system.switch_cpus0.iew.wb_fanout            0.358037                       # average fanout of values written-back
system.switch_cpus0.iew.wb_penalized_rate            0                       # fraction of instructions written-back that wrote to 'other' IQ
system.switch_cpus0.commit.commitCommittedInsts    100000000                       # The number of committed instructions
system.switch_cpus0.commit.commitCommittedOps    122421920                       # The number of committed instructions
system.switch_cpus0.commit.commitSquashedInsts     61443677                       # The number of squashed insts skipped by commit
system.switch_cpus0.commit.commitNonSpecStalls        32044                       # The number of times commit has been forced to stall to communicate backwards
system.switch_cpus0.commit.branchMispredicts      2038541                       # The number of times a branch was mispredicted
system.switch_cpus0.commit.committed_per_cycle::samples     75604420                       # Number of insts commited each cycle
system.switch_cpus0.commit.committed_per_cycle::mean     1.619243                       # Number of insts commited each cycle
system.switch_cpus0.commit.committed_per_cycle::stdev     2.170011                       # Number of insts commited each cycle
system.switch_cpus0.commit.committed_per_cycle::underflows            0      0.00%      0.00% # Number of insts commited each cycle
system.switch_cpus0.commit.committed_per_cycle::0     30296976     40.07%     40.07% # Number of insts commited each cycle
system.switch_cpus0.commit.committed_per_cycle::1     20451559     27.05%     67.12% # Number of insts commited each cycle
system.switch_cpus0.commit.committed_per_cycle::2      8372928     11.07%     78.20% # Number of insts commited each cycle
system.switch_cpus0.commit.committed_per_cycle::3      4296327      5.68%     83.88% # Number of insts commited each cycle
system.switch_cpus0.commit.committed_per_cycle::4      3683681      4.87%     88.75% # Number of insts commited each cycle
system.switch_cpus0.commit.committed_per_cycle::5      1812356      2.40%     91.15% # Number of insts commited each cycle
system.switch_cpus0.commit.committed_per_cycle::6      1988958      2.63%     93.78% # Number of insts commited each cycle
system.switch_cpus0.commit.committed_per_cycle::7      1007808      1.33%     95.11% # Number of insts commited each cycle
system.switch_cpus0.commit.committed_per_cycle::8      3693827      4.89%    100.00% # Number of insts commited each cycle
system.switch_cpus0.commit.committed_per_cycle::overflows            0      0.00%    100.00% # Number of insts commited each cycle
system.switch_cpus0.commit.committed_per_cycle::min_value            0                       # Number of insts commited each cycle
system.switch_cpus0.commit.committed_per_cycle::max_value            8                       # Number of insts commited each cycle
system.switch_cpus0.commit.committed_per_cycle::total     75604420                       # Number of insts commited each cycle
system.switch_cpus0.commit.committedInsts    100000000                       # Number of instructions committed
system.switch_cpus0.commit.committedOps     122421920                       # Number of ops (including micro ops) committed
system.switch_cpus0.commit.swp_count                0                       # Number of s/w prefetches committed
system.switch_cpus0.commit.refs              19953799                       # Number of memory references committed
system.switch_cpus0.commit.loads             12212129                       # Number of loads committed
system.switch_cpus0.commit.membars              16022                       # Number of memory barriers committed
system.switch_cpus0.commit.branches          17573934                       # Number of branches committed
system.switch_cpus0.commit.fp_insts                 0                       # Number of committed floating point instructions.
system.switch_cpus0.commit.int_insts        110146126                       # Number of committed integer instructions.
system.switch_cpus0.commit.function_calls      2413416                       # Number of function calls committed.
system.switch_cpus0.commit.bw_lim_events      3693827                       # number cycles where commit BW limit reached
system.switch_cpus0.commit.bw_limited               0                       # number of insts not committed due to BW limits
system.switch_cpus0.rob.rob_reads           255776190                       # The number of ROB reads
system.switch_cpus0.rob.rob_writes          376478413                       # The number of ROB writes
system.switch_cpus0.timesIdled                  44918                       # Number of times that the entire CPU went into an idle state and unscheduled itself
system.switch_cpus0.idleCycles                1719507                       # Total number of cycles that the CPU has spent unscheduled due to idling
system.switch_cpus0.committedInsts          100000000                       # Number of Instructions Simulated
system.switch_cpus0.committedOps            122421920                       # Number of Ops (including micro ops) Simulated
system.switch_cpus0.committedInsts_total    100000000                       # Number of Instructions Simulated
system.switch_cpus0.cpi                      0.860629                       # CPI: Cycles Per Instruction
system.switch_cpus0.cpi_total                0.860629                       # CPI: Total CPI of All Threads
system.switch_cpus0.ipc                      1.161941                       # IPC: Instructions Per Cycle
system.switch_cpus0.ipc_total                1.161941                       # IPC: Total IPC of All Threads
system.switch_cpus0.int_regfile_reads       655382603                       # number of integer regfile reads
system.switch_cpus0.int_regfile_writes      196944474                       # number of integer regfile writes
system.switch_cpus0.misc_regfile_reads      189173584                       # number of misc regfile reads
system.switch_cpus0.misc_regfile_writes         32044                       # number of misc regfile writes
system.switch_cpus1.dtb.inst_hits                   0                       # ITB inst hits
system.switch_cpus1.dtb.inst_misses                 0                       # ITB inst misses
system.switch_cpus1.dtb.read_hits                   0                       # DTB read hits
system.switch_cpus1.dtb.read_misses                 0                       # DTB read misses
system.switch_cpus1.dtb.write_hits                  0                       # DTB write hits
system.switch_cpus1.dtb.write_misses                0                       # DTB write misses
system.switch_cpus1.dtb.flush_tlb                   0                       # Number of times complete TLB was flushed
system.switch_cpus1.dtb.flush_tlb_mva               0                       # Number of times TLB was flushed by MVA
system.switch_cpus1.dtb.flush_tlb_mva_asid            0                       # Number of times TLB was flushed by MVA & ASID
system.switch_cpus1.dtb.flush_tlb_asid              0                       # Number of times TLB was flushed by ASID
system.switch_cpus1.dtb.flush_entries               0                       # Number of entries that have been flushed from TLB
system.switch_cpus1.dtb.align_faults                0                       # Number of TLB faults due to alignment restrictions
system.switch_cpus1.dtb.prefetch_faults             0                       # Number of TLB faults due to prefetch
system.switch_cpus1.dtb.domain_faults               0                       # Number of TLB faults due to domain restrictions
system.switch_cpus1.dtb.perms_faults                0                       # Number of TLB faults due to permissions restrictions
system.switch_cpus1.dtb.read_accesses               0                       # DTB read accesses
system.switch_cpus1.dtb.write_accesses              0                       # DTB write accesses
system.switch_cpus1.dtb.inst_accesses               0                       # ITB inst accesses
system.switch_cpus1.dtb.hits                        0                       # DTB hits
system.switch_cpus1.dtb.misses                      0                       # DTB misses
system.switch_cpus1.dtb.accesses                    0                       # DTB accesses
system.switch_cpus1.itb.inst_hits                   0                       # ITB inst hits
system.switch_cpus1.itb.inst_misses                 0                       # ITB inst misses
system.switch_cpus1.itb.read_hits                   0                       # DTB read hits
system.switch_cpus1.itb.read_misses                 0                       # DTB read misses
system.switch_cpus1.itb.write_hits                  0                       # DTB write hits
system.switch_cpus1.itb.write_misses                0                       # DTB write misses
system.switch_cpus1.itb.flush_tlb                   0                       # Number of times complete TLB was flushed
system.switch_cpus1.itb.flush_tlb_mva               0                       # Number of times TLB was flushed by MVA
system.switch_cpus1.itb.flush_tlb_mva_asid            0                       # Number of times TLB was flushed by MVA & ASID
system.switch_cpus1.itb.flush_tlb_asid              0                       # Number of times TLB was flushed by ASID
system.switch_cpus1.itb.flush_entries               0                       # Number of entries that have been flushed from TLB
system.switch_cpus1.itb.align_faults                0                       # Number of TLB faults due to alignment restrictions
system.switch_cpus1.itb.prefetch_faults             0                       # Number of TLB faults due to prefetch
system.switch_cpus1.itb.domain_faults               0                       # Number of TLB faults due to domain restrictions
system.switch_cpus1.itb.perms_faults                0                       # Number of TLB faults due to permissions restrictions
system.switch_cpus1.itb.read_accesses               0                       # DTB read accesses
system.switch_cpus1.itb.write_accesses              0                       # DTB write accesses
system.switch_cpus1.itb.inst_accesses               0                       # ITB inst accesses
system.switch_cpus1.itb.hits                        0                       # DTB hits
system.switch_cpus1.itb.misses                      0                       # DTB misses
system.switch_cpus1.itb.accesses                    0                       # DTB accesses
system.cpu1.workload.num_syscalls                   0                       # Number of system calls
system.switch_cpus1.numCycles                86062866                       # number of cpu cycles simulated
system.switch_cpus1.numWorkItemsStarted             0                       # number of work items this cpu started
system.switch_cpus1.numWorkItemsCompleted            0                       # number of work items this cpu completed
system.switch_cpus1.BPredUnit.lookups        31107210                       # Number of BP lookups
system.switch_cpus1.BPredUnit.condPredicted     27202328                       # Number of conditional branches predicted
system.switch_cpus1.BPredUnit.condIncorrect      1965173                       # Number of conditional branches incorrect
system.switch_cpus1.BPredUnit.BTBLookups     15628562                       # Number of BTB lookups
system.switch_cpus1.BPredUnit.BTBHits        14971330                       # Number of BTB hits
system.switch_cpus1.BPredUnit.BTBCorrect            0                       # Number of correct BTB predictions (this stat may not work properly.
system.switch_cpus1.BPredUnit.usedRAS         2233446                       # Number of times the RAS was used to get a target.
system.switch_cpus1.BPredUnit.RASInCorrect        62122                       # Number of incorrect RAS predictions.
system.switch_cpus1.fetch.icacheStallCycles     36680199                       # Number of cycles fetch is stalled on an Icache miss
system.switch_cpus1.fetch.Insts             173106603                       # Number of instructions fetch has processed
system.switch_cpus1.fetch.Branches           31107210                       # Number of branches that fetch encountered
system.switch_cpus1.fetch.predictedBranches     17204776                       # Number of branches that fetch has predicted taken
system.switch_cpus1.fetch.Cycles             35636420                       # Number of cycles fetch has run and was not squashing or blocked
system.switch_cpus1.fetch.SquashCycles        9656505                       # Number of cycles fetch has spent squashing
system.switch_cpus1.fetch.BlockedCycles       4443290                       # Number of cycles fetch has spent blocked
system.switch_cpus1.fetch.PendingTrapStallCycles           30                       # Number of stall cycles due to pending traps
system.switch_cpus1.fetch.CacheLines         18082220                       # Number of cache lines fetched
system.switch_cpus1.fetch.IcacheSquashes       779043                       # Number of outstanding Icache misses that were squashed
system.switch_cpus1.fetch.rateDist::samples     84440063                       # Number of instructions fetched each cycle (Total)
system.switch_cpus1.fetch.rateDist::mean     2.359353                       # Number of instructions fetched each cycle (Total)
system.switch_cpus1.fetch.rateDist::stdev     3.169091                       # Number of instructions fetched each cycle (Total)
system.switch_cpus1.fetch.rateDist::underflows            0      0.00%      0.00% # Number of instructions fetched each cycle (Total)
system.switch_cpus1.fetch.rateDist::0        48803643     57.80%     57.80% # Number of instructions fetched each cycle (Total)
system.switch_cpus1.fetch.rateDist::1         1764297      2.09%     59.89% # Number of instructions fetched each cycle (Total)
system.switch_cpus1.fetch.rateDist::2         3237868      3.83%     63.72% # Number of instructions fetched each cycle (Total)
system.switch_cpus1.fetch.rateDist::3         3024552      3.58%     67.30% # Number of instructions fetched each cycle (Total)
system.switch_cpus1.fetch.rateDist::4         5002024      5.92%     73.23% # Number of instructions fetched each cycle (Total)
system.switch_cpus1.fetch.rateDist::5         5192864      6.15%     79.38% # Number of instructions fetched each cycle (Total)
system.switch_cpus1.fetch.rateDist::6         1227385      1.45%     80.83% # Number of instructions fetched each cycle (Total)
system.switch_cpus1.fetch.rateDist::7          925978      1.10%     81.93% # Number of instructions fetched each cycle (Total)
system.switch_cpus1.fetch.rateDist::8        15261452     18.07%    100.00% # Number of instructions fetched each cycle (Total)
system.switch_cpus1.fetch.rateDist::overflows            0      0.00%    100.00% # Number of instructions fetched each cycle (Total)
system.switch_cpus1.fetch.rateDist::min_value            0                       # Number of instructions fetched each cycle (Total)
system.switch_cpus1.fetch.rateDist::max_value            8                       # Number of instructions fetched each cycle (Total)
system.switch_cpus1.fetch.rateDist::total     84440063                       # Number of instructions fetched each cycle (Total)
system.switch_cpus1.fetch.branchRate         0.361448                       # Number of branch fetches per cycle
system.switch_cpus1.fetch.rate               2.011397                       # Number of inst fetches per cycle
system.switch_cpus1.decode.IdleCycles        37848882                       # Number of cycles decode is idle
system.switch_cpus1.decode.BlockedCycles      4291702                       # Number of cycles decode is blocked
system.switch_cpus1.decode.RunCycles         34488465                       # Number of cycles decode is running
system.switch_cpus1.decode.UnblockCycles       136539                       # Number of cycles decode is unblocking
system.switch_cpus1.decode.SquashCycles       7674474                       # Number of cycles decode is squashing
system.switch_cpus1.decode.BranchResolved      3378001                       # Number of times decode resolved a branch
system.switch_cpus1.decode.BranchMispred         5661                       # Number of times decode detected a branch misprediction
system.switch_cpus1.decode.DecodedInsts     193621474                       # Number of instructions handled by decode
system.switch_cpus1.decode.SquashedInsts         1389                       # Number of squashed instructions handled by decode
system.switch_cpus1.rename.SquashCycles       7674474                       # Number of cycles rename is squashing
system.switch_cpus1.rename.IdleCycles        39441606                       # Number of cycles rename is idle
system.switch_cpus1.rename.BlockCycles        1590752                       # Number of cycles rename is blocking
system.switch_cpus1.rename.serializeStallCycles       472568                       # count of cycles rename stalled for serializing inst
system.switch_cpus1.rename.RunCycles         33022152                       # Number of cycles rename is running
system.switch_cpus1.rename.UnblockCycles      2238510                       # Number of cycles rename is unblocking
system.switch_cpus1.rename.RenamedInsts     188533328                       # Number of instructions processed by rename
system.switch_cpus1.rename.ROBFullEvents           71                       # Number of times rename has blocked due to ROB full
system.switch_cpus1.rename.IQFullEvents        752335                       # Number of times rename has blocked due to IQ full
system.switch_cpus1.rename.LSQFullEvents       925779                       # Number of times rename has blocked due to LSQ full
system.switch_cpus1.rename.RenamedOperands    250208535                       # Number of destination operands rename has renamed
system.switch_cpus1.rename.RenameLookups    858124322                       # Number of register rename lookups that rename has made
system.switch_cpus1.rename.int_rename_lookups    858124322                       # Number of integer rename lookups
system.switch_cpus1.rename.CommittedMaps    163064232                       # Number of HB maps that are committed
system.switch_cpus1.rename.UndoneMaps        87144298                       # Number of HB maps that are undone due to squashing
system.switch_cpus1.rename.serializingInsts        22210                       # count of serializing insts renamed
system.switch_cpus1.rename.tempSerializingInsts        10861                       # count of temporary serializing insts renamed
system.switch_cpus1.rename.skidInsts          5942859                       # count of insts added to the skid buffer
system.switch_cpus1.memDep0.insertedLoads     29067516                       # Number of loads inserted to the mem dependence unit.
system.switch_cpus1.memDep0.insertedStores      6302418                       # Number of stores inserted to the mem dependence unit.
system.switch_cpus1.memDep0.conflictingLoads       104443                       # Number of conflicting loads.
system.switch_cpus1.memDep0.conflictingStores      2139064                       # Number of conflicting stores.
system.switch_cpus1.iq.iqInstsAdded         178495452                       # Number of instructions added to the IQ (excludes non-spec)
system.switch_cpus1.iq.iqNonSpecInstsAdded        21701                       # Number of non-speculative instructions added to the IQ
system.switch_cpus1.iq.iqInstsIssued        150725391                       # Number of instructions issued
system.switch_cpus1.iq.iqSquashedInstsIssued       199017                       # Number of squashed instructions issued
system.switch_cpus1.iq.iqSquashedInstsExamined     53374267                       # Number of squashed instructions iterated over during squash; mainly for profiling
system.switch_cpus1.iq.iqSquashedOperandsExamined    146686571                       # Number of squashed operands that are examined and possibly removed from graph
system.switch_cpus1.iq.iqSquashedNonSpecRemoved           21                       # Number of squashed non-spec instructions that were removed
system.switch_cpus1.iq.issued_per_cycle::samples     84440063                       # Number of insts issued each cycle
system.switch_cpus1.iq.issued_per_cycle::mean     1.784999                       # Number of insts issued each cycle
system.switch_cpus1.iq.issued_per_cycle::stdev     1.839135                       # Number of insts issued each cycle
system.switch_cpus1.iq.issued_per_cycle::underflows            0      0.00%      0.00% # Number of insts issued each cycle
system.switch_cpus1.iq.issued_per_cycle::0     29262695     34.65%     34.65% # Number of insts issued each cycle
system.switch_cpus1.iq.issued_per_cycle::1     15760374     18.66%     53.32% # Number of insts issued each cycle
system.switch_cpus1.iq.issued_per_cycle::2     13764621     16.30%     69.62% # Number of insts issued each cycle
system.switch_cpus1.iq.issued_per_cycle::3      8386818      9.93%     79.55% # Number of insts issued each cycle
system.switch_cpus1.iq.issued_per_cycle::4      8788974     10.41%     89.96% # Number of insts issued each cycle
system.switch_cpus1.iq.issued_per_cycle::5      5180795      6.14%     96.10% # Number of insts issued each cycle
system.switch_cpus1.iq.issued_per_cycle::6      2272350      2.69%     98.79% # Number of insts issued each cycle
system.switch_cpus1.iq.issued_per_cycle::7       606138      0.72%     99.51% # Number of insts issued each cycle
system.switch_cpus1.iq.issued_per_cycle::8       417298      0.49%    100.00% # Number of insts issued each cycle
system.switch_cpus1.iq.issued_per_cycle::overflows            0      0.00%    100.00% # Number of insts issued each cycle
system.switch_cpus1.iq.issued_per_cycle::min_value            0                       # Number of insts issued each cycle
system.switch_cpus1.iq.issued_per_cycle::max_value            8                       # Number of insts issued each cycle
system.switch_cpus1.iq.issued_per_cycle::total     84440063                       # Number of insts issued each cycle
system.switch_cpus1.iq.fu_full::No_OpClass            0      0.00%      0.00% # attempts to use FU when none available
system.switch_cpus1.iq.fu_full::IntAlu         589232     66.26%     66.26% # attempts to use FU when none available
system.switch_cpus1.iq.fu_full::IntMult             0      0.00%     66.26% # attempts to use FU when none available
system.switch_cpus1.iq.fu_full::IntDiv              0      0.00%     66.26% # attempts to use FU when none available
system.switch_cpus1.iq.fu_full::FloatAdd            0      0.00%     66.26% # attempts to use FU when none available
system.switch_cpus1.iq.fu_full::FloatCmp            0      0.00%     66.26% # attempts to use FU when none available
system.switch_cpus1.iq.fu_full::FloatCvt            0      0.00%     66.26% # attempts to use FU when none available
system.switch_cpus1.iq.fu_full::FloatMult            0      0.00%     66.26% # attempts to use FU when none available
system.switch_cpus1.iq.fu_full::FloatDiv            0      0.00%     66.26% # attempts to use FU when none available
system.switch_cpus1.iq.fu_full::FloatSqrt            0      0.00%     66.26% # attempts to use FU when none available
system.switch_cpus1.iq.fu_full::SimdAdd             0      0.00%     66.26% # attempts to use FU when none available
system.switch_cpus1.iq.fu_full::SimdAddAcc            0      0.00%     66.26% # attempts to use FU when none available
system.switch_cpus1.iq.fu_full::SimdAlu             0      0.00%     66.26% # attempts to use FU when none available
system.switch_cpus1.iq.fu_full::SimdCmp             0      0.00%     66.26% # attempts to use FU when none available
system.switch_cpus1.iq.fu_full::SimdCvt             0      0.00%     66.26% # attempts to use FU when none available
system.switch_cpus1.iq.fu_full::SimdMisc            0      0.00%     66.26% # attempts to use FU when none available
system.switch_cpus1.iq.fu_full::SimdMult            0      0.00%     66.26% # attempts to use FU when none available
system.switch_cpus1.iq.fu_full::SimdMultAcc            0      0.00%     66.26% # attempts to use FU when none available
system.switch_cpus1.iq.fu_full::SimdShift            0      0.00%     66.26% # attempts to use FU when none available
system.switch_cpus1.iq.fu_full::SimdShiftAcc            0      0.00%     66.26% # attempts to use FU when none available
system.switch_cpus1.iq.fu_full::SimdSqrt            0      0.00%     66.26% # attempts to use FU when none available
system.switch_cpus1.iq.fu_full::SimdFloatAdd            0      0.00%     66.26% # attempts to use FU when none available
system.switch_cpus1.iq.fu_full::SimdFloatAlu            0      0.00%     66.26% # attempts to use FU when none available
system.switch_cpus1.iq.fu_full::SimdFloatCmp            0      0.00%     66.26% # attempts to use FU when none available
system.switch_cpus1.iq.fu_full::SimdFloatCvt            0      0.00%     66.26% # attempts to use FU when none available
system.switch_cpus1.iq.fu_full::SimdFloatDiv            0      0.00%     66.26% # attempts to use FU when none available
system.switch_cpus1.iq.fu_full::SimdFloatMisc            0      0.00%     66.26% # attempts to use FU when none available
system.switch_cpus1.iq.fu_full::SimdFloatMult            0      0.00%     66.26% # attempts to use FU when none available
system.switch_cpus1.iq.fu_full::SimdFloatMultAcc            0      0.00%     66.26% # attempts to use FU when none available
system.switch_cpus1.iq.fu_full::SimdFloatSqrt            0      0.00%     66.26% # attempts to use FU when none available
system.switch_cpus1.iq.fu_full::MemRead        189919     21.36%     87.62% # attempts to use FU when none available
system.switch_cpus1.iq.fu_full::MemWrite       110113     12.38%    100.00% # attempts to use FU when none available
system.switch_cpus1.iq.fu_full::IprAccess            0      0.00%    100.00% # attempts to use FU when none available
system.switch_cpus1.iq.fu_full::InstPrefetch            0      0.00%    100.00% # attempts to use FU when none available
system.switch_cpus1.iq.FU_type_0::No_OpClass            0      0.00%      0.00% # Type of FU issued
system.switch_cpus1.iq.FU_type_0::IntAlu    118188358     78.41%     78.41% # Type of FU issued
system.switch_cpus1.iq.FU_type_0::IntMult      1186160      0.79%     79.20% # Type of FU issued
system.switch_cpus1.iq.FU_type_0::IntDiv            0      0.00%     79.20% # Type of FU issued
system.switch_cpus1.iq.FU_type_0::FloatAdd            0      0.00%     79.20% # Type of FU issued
system.switch_cpus1.iq.FU_type_0::FloatCmp            0      0.00%     79.20% # Type of FU issued
system.switch_cpus1.iq.FU_type_0::FloatCvt            0      0.00%     79.20% # Type of FU issued
system.switch_cpus1.iq.FU_type_0::FloatMult            0      0.00%     79.20% # Type of FU issued
system.switch_cpus1.iq.FU_type_0::FloatDiv            0      0.00%     79.20% # Type of FU issued
system.switch_cpus1.iq.FU_type_0::FloatSqrt            0      0.00%     79.20% # Type of FU issued
system.switch_cpus1.iq.FU_type_0::SimdAdd            0      0.00%     79.20% # Type of FU issued
system.switch_cpus1.iq.FU_type_0::SimdAddAcc            0      0.00%     79.20% # Type of FU issued
system.switch_cpus1.iq.FU_type_0::SimdAlu            0      0.00%     79.20% # Type of FU issued
system.switch_cpus1.iq.FU_type_0::SimdCmp            0      0.00%     79.20% # Type of FU issued
system.switch_cpus1.iq.FU_type_0::SimdCvt            0      0.00%     79.20% # Type of FU issued
system.switch_cpus1.iq.FU_type_0::SimdMisc            0      0.00%     79.20% # Type of FU issued
system.switch_cpus1.iq.FU_type_0::SimdMult            0      0.00%     79.20% # Type of FU issued
system.switch_cpus1.iq.FU_type_0::SimdMultAcc            0      0.00%     79.20% # Type of FU issued
system.switch_cpus1.iq.FU_type_0::SimdShift            0      0.00%     79.20% # Type of FU issued
system.switch_cpus1.iq.FU_type_0::SimdShiftAcc            0      0.00%     79.20% # Type of FU issued
system.switch_cpus1.iq.FU_type_0::SimdSqrt            0      0.00%     79.20% # Type of FU issued
system.switch_cpus1.iq.FU_type_0::SimdFloatAdd            0      0.00%     79.20% # Type of FU issued
system.switch_cpus1.iq.FU_type_0::SimdFloatAlu            0      0.00%     79.20% # Type of FU issued
system.switch_cpus1.iq.FU_type_0::SimdFloatCmp            0      0.00%     79.20% # Type of FU issued
system.switch_cpus1.iq.FU_type_0::SimdFloatCvt            0      0.00%     79.20% # Type of FU issued
system.switch_cpus1.iq.FU_type_0::SimdFloatDiv            0      0.00%     79.20% # Type of FU issued
system.switch_cpus1.iq.FU_type_0::SimdFloatMisc        10842      0.01%     79.21% # Type of FU issued
system.switch_cpus1.iq.FU_type_0::SimdFloatMult            0      0.00%     79.21% # Type of FU issued
system.switch_cpus1.iq.FU_type_0::SimdFloatMultAcc            0      0.00%     79.21% # Type of FU issued
system.switch_cpus1.iq.FU_type_0::SimdFloatSqrt            0      0.00%     79.21% # Type of FU issued
system.switch_cpus1.iq.FU_type_0::MemRead     25988976     17.24%     96.45% # Type of FU issued
system.switch_cpus1.iq.FU_type_0::MemWrite      5351055      3.55%    100.00% # Type of FU issued
system.switch_cpus1.iq.FU_type_0::IprAccess            0      0.00%    100.00% # Type of FU issued
system.switch_cpus1.iq.FU_type_0::InstPrefetch            0      0.00%    100.00% # Type of FU issued
system.switch_cpus1.iq.FU_type_0::total     150725391                       # Type of FU issued
system.switch_cpus1.iq.rate                  1.751341                       # Inst issue rate
system.switch_cpus1.iq.fu_busy_cnt             889264                       # FU busy when requested
system.switch_cpus1.iq.fu_busy_rate          0.005900                       # FU busy rate (busy events/executed inst)
system.switch_cpus1.iq.int_inst_queue_reads    386979126                       # Number of integer instruction queue reads
system.switch_cpus1.iq.int_inst_queue_writes    231891890                       # Number of integer instruction queue writes
system.switch_cpus1.iq.int_inst_queue_wakeup_accesses    145835592                       # Number of integer instruction queue wakeup accesses
system.switch_cpus1.iq.fp_inst_queue_reads            0                       # Number of floating instruction queue reads
system.switch_cpus1.iq.fp_inst_queue_writes            0                       # Number of floating instruction queue writes
system.switch_cpus1.iq.fp_inst_queue_wakeup_accesses            0                       # Number of floating instruction queue wakeup accesses
system.switch_cpus1.iq.int_alu_accesses     151614655                       # Number of integer alu accesses
system.switch_cpus1.iq.fp_alu_accesses              0                       # Number of floating point alu accesses
system.switch_cpus1.iew.lsq.thread0.forwLoads       368635                       # Number of loads that had data forwarded from stores
system.switch_cpus1.iew.lsq.thread0.invAddrLoads            0                       # Number of loads ignored due to an invalid address
system.switch_cpus1.iew.lsq.thread0.squashedLoads      8285065                       # Number of loads squashed
system.switch_cpus1.iew.lsq.thread0.ignoredResponses          930                       # Number of memory responses ignored because the instruction is squashed
system.switch_cpus1.iew.lsq.thread0.memOrderViolation          471                       # Number of memory ordering violations
system.switch_cpus1.iew.lsq.thread0.squashedStores      1541403                       # Number of stores squashed
system.switch_cpus1.iew.lsq.thread0.invAddrSwpfs            0                       # Number of software prefetches ignored due to an invalid address
system.switch_cpus1.iew.lsq.thread0.blockedLoads            0                       # Number of blocked loads due to partial load-store forwarding
system.switch_cpus1.iew.lsq.thread0.rescheduledLoads            0                       # Number of loads that were rescheduled
system.switch_cpus1.iew.lsq.thread0.cacheBlocked            0                       # Number of times an access to memory failed due to the cache being blocked
system.switch_cpus1.iew.iewIdleCycles               0                       # Number of cycles IEW is idle
system.switch_cpus1.iew.iewSquashCycles       7674474                       # Number of cycles IEW is squashing
system.switch_cpus1.iew.iewBlockCycles         892658                       # Number of cycles IEW is blocking
system.switch_cpus1.iew.iewUnblockCycles        70710                       # Number of cycles IEW is unblocking
system.switch_cpus1.iew.iewDispatchedInsts    178517157                       # Number of instructions dispatched to IQ
system.switch_cpus1.iew.iewDispSquashedInsts       208642                       # Number of squashed instructions skipped by dispatch
system.switch_cpus1.iew.iewDispLoadInsts     29067516                       # Number of dispatched load instructions
system.switch_cpus1.iew.iewDispStoreInsts      6302418                       # Number of dispatched store instructions
system.switch_cpus1.iew.iewDispNonSpecInsts        10861                       # Number of dispatched non-speculative instructions
system.switch_cpus1.iew.iewIQFullEvents         34096                       # Number of times the IQ has become full, causing a stall
system.switch_cpus1.iew.iewLSQFullEvents          260                       # Number of times the LSQ has become full, causing a stall
system.switch_cpus1.iew.memOrderViolationEvents          471                       # Number of memory order violations
system.switch_cpus1.iew.predictedTakenIncorrect      1047428                       # Number of branches that were predicted taken incorrectly
system.switch_cpus1.iew.predictedNotTakenIncorrect      1156848                       # Number of branches that were predicted not taken incorrectly
system.switch_cpus1.iew.branchMispredicts      2204276                       # Number of branch mispredicts detected at execute
system.switch_cpus1.iew.iewExecutedInsts    147928626                       # Number of executed instructions
system.switch_cpus1.iew.iewExecLoadInsts     24986155                       # Number of load instructions executed
system.switch_cpus1.iew.iewExecSquashedInsts      2796765                       # Number of squashed instructions skipped in execute
system.switch_cpus1.iew.exec_swp                    0                       # number of swp insts executed
system.switch_cpus1.iew.exec_nop                    4                       # number of nop insts executed
system.switch_cpus1.iew.exec_refs            30207317                       # number of memory reference insts executed
system.switch_cpus1.iew.exec_branches        22366291                       # Number of branches executed
system.switch_cpus1.iew.exec_stores           5221162                       # Number of stores executed
system.switch_cpus1.iew.exec_rate            1.718844                       # Inst execution rate
system.switch_cpus1.iew.wb_sent             145997238                       # cumulative count of insts sent to commit
system.switch_cpus1.iew.wb_count            145835592                       # cumulative count of insts written-back
system.switch_cpus1.iew.wb_producers         89579620                       # num instructions producing a value
system.switch_cpus1.iew.wb_consumers        218473363                       # num instructions consuming a value
system.switch_cpus1.iew.wb_penalized                0                       # number of instrctions required to write to 'other' IQ
system.switch_cpus1.iew.wb_rate              1.694524                       # insts written-back per cycle
system.switch_cpus1.iew.wb_fanout            0.410025                       # average fanout of values written-back
system.switch_cpus1.iew.wb_penalized_rate            0                       # fraction of instructions written-back that wrote to 'other' IQ
system.switch_cpus1.commit.commitCommittedInsts    109588478                       # The number of committed instructions
system.switch_cpus1.commit.commitCommittedOps    124462156                       # The number of committed instructions
system.switch_cpus1.commit.commitSquashedInsts     54055775                       # The number of squashed insts skipped by commit
system.switch_cpus1.commit.commitNonSpecStalls        21680                       # The number of times commit has been forced to stall to communicate backwards
system.switch_cpus1.commit.branchMispredicts      1970390                       # The number of times a branch was mispredicted
[...]
system.cpu3.icache.ReadReq_avg_miss_latency::total 45518.125000                       # average ReadReq miss latency
system.cpu3.icache.demand_avg_miss_latency::switch_cpus3.inst 45518.125000                       # average overall miss latency
system.cpu3.icache.demand_avg_miss_latency::total 45518.125000                       # average overall miss latency
system.cpu3.icache.overall_avg_miss_latency::switch_cpus3.inst 45518.125000                       # average overall miss latency
system.cpu3.icache.overall_avg_miss_latency::total 45518.125000                       # average overall miss latency
system.cpu3.icache.blocked_cycles::no_mshrs            0                       # number of cycles access was blocked
system.cpu3.icache.blocked_cycles::no_targets            0                       # number of cycles access was blocked
system.cpu3.icache.blocked::no_mshrs                0                       # number of cycles access was blocked
system.cpu3.icache.blocked::no_targets              0                       # number of cycles access was blocked
system.cpu3.icache.avg_blocked_cycles::no_mshrs          nan                       # average number of cycles each access was blocked
system.cpu3.icache.avg_blocked_cycles::no_targets          nan                       # average number of cycles each access was blocked
system.cpu3.icache.fast_writes                      0                       # number of fast writes performed
system.cpu3.icache.cache_copies                     0                       # number of cache copies performed
system.cpu3.icache.ReadReq_mshr_hits::switch_cpus3.inst            3                       # number of ReadReq MSHR hits
system.cpu3.icache.ReadReq_mshr_hits::total            3                       # number of ReadReq MSHR hits
system.cpu3.icache.demand_mshr_hits::switch_cpus3.inst            3                       # number of demand (read+write) MSHR hits
system.cpu3.icache.demand_mshr_hits::total            3                       # number of demand (read+write) MSHR hits
system.cpu3.icache.overall_mshr_hits::switch_cpus3.inst            3                       # number of overall MSHR hits
system.cpu3.icache.overall_mshr_hits::total            3                       # number of overall MSHR hits
system.cpu3.icache.ReadReq_mshr_misses::switch_cpus3.inst           13                       # number of ReadReq MSHR misses
system.cpu3.icache.ReadReq_mshr_misses::total           13                       # number of ReadReq MSHR misses
system.cpu3.icache.demand_mshr_misses::switch_cpus3.inst           13                       # number of demand (read+write) MSHR misses
system.cpu3.icache.demand_mshr_misses::total           13                       # number of demand (read+write) MSHR misses
system.cpu3.icache.overall_mshr_misses::switch_cpus3.inst           13                       # number of overall MSHR misses
system.cpu3.icache.overall_mshr_misses::total           13                       # number of overall MSHR misses
system.cpu3.icache.ReadReq_mshr_miss_latency::switch_cpus3.inst       576443                       # number of ReadReq MSHR miss cycles
system.cpu3.icache.ReadReq_mshr_miss_latency::total       576443                       # number of ReadReq MSHR miss cycles
system.cpu3.icache.demand_mshr_miss_latency::switch_cpus3.inst       576443                       # number of demand (read+write) MSHR miss cycles
system.cpu3.icache.demand_mshr_miss_latency::total       576443                       # number of demand (read+write) MSHR miss cycles
system.cpu3.icache.overall_mshr_miss_latency::switch_cpus3.inst       576443                       # number of overall MSHR miss cycles
system.cpu3.icache.overall_mshr_miss_latency::total       576443                       # number of overall MSHR miss cycles
system.cpu3.icache.ReadReq_mshr_miss_rate::switch_cpus3.inst     0.000001                       # mshr miss rate for ReadReq accesses
system.cpu3.icache.ReadReq_mshr_miss_rate::total     0.000001                       # mshr miss rate for ReadReq accesses
system.cpu3.icache.demand_mshr_miss_rate::switch_cpus3.inst     0.000001                       # mshr miss rate for demand accesses
system.cpu3.icache.demand_mshr_miss_rate::total     0.000001                       # mshr miss rate for demand accesses
system.cpu3.icache.overall_mshr_miss_rate::switch_cpus3.inst     0.000001                       # mshr miss rate for overall accesses
system.cpu3.icache.overall_mshr_miss_rate::total     0.000001                       # mshr miss rate for overall accesses
system.cpu3.icache.ReadReq_avg_mshr_miss_latency::switch_cpus3.inst 44341.769231                       # average ReadReq mshr miss latency
system.cpu3.icache.ReadReq_avg_mshr_miss_latency::total 44341.769231                       # average ReadReq mshr miss latency
system.cpu3.icache.demand_avg_mshr_miss_latency::switch_cpus3.inst 44341.769231                       # average overall mshr miss latency
system.cpu3.icache.demand_avg_mshr_miss_latency::total 44341.769231                       # average overall mshr miss latency
system.cpu3.icache.overall_avg_mshr_miss_latency::switch_cpus3.inst 44341.769231                       # average overall mshr miss latency
system.cpu3.icache.overall_avg_mshr_miss_latency::total 44341.769231                       # average overall mshr miss latency
system.cpu3.icache.no_allocate_misses               0                       # Number of misses that were no-allocate
system.cpu3.dcache.replacements                 52326                       # number of replacements
system.cpu3.dcache.tagsinuse                      256                       # Cycle average of tags in use
system.cpu3.dcache.total_refs               174135703                       # Total number of references to valid blocks.
system.cpu3.dcache.sampled_refs                 52582                       # Sample count of references to valid blocks.
system.cpu3.dcache.avg_refs               3311.697976                       # Average number of references to valid blocks.
system.cpu3.dcache.warmup_cycle                     0                       # Cycle when the warmup percentage was hit.
system.cpu3.dcache.occ_blocks::switch_cpus3.data   233.232843                       # Average occupied blocks per requestor
system.cpu3.dcache.occ_blocks::cpu3.data    22.767157                       # Average occupied blocks per requestor
system.cpu3.dcache.occ_percent::switch_cpus3.data     0.911066                       # Average percentage of cache occupancy
system.cpu3.dcache.occ_percent::cpu3.data     0.088934                       # Average percentage of cache occupancy
system.cpu3.dcache.occ_percent::total               1                       # Average percentage of cache occupancy
system.cpu3.dcache.ReadReq_hits::switch_cpus3.data     10439515                       # number of ReadReq hits
system.cpu3.dcache.ReadReq_hits::total       10439515                       # number of ReadReq hits
system.cpu3.dcache.WriteReq_hits::switch_cpus3.data      7192732                       # number of WriteReq hits
system.cpu3.dcache.WriteReq_hits::total       7192732                       # number of WriteReq hits
system.cpu3.dcache.LoadLockedReq_hits::switch_cpus3.data        17609                       # number of LoadLockedReq hits
system.cpu3.dcache.LoadLockedReq_hits::total        17609                       # number of LoadLockedReq hits
system.cpu3.dcache.StoreCondReq_hits::switch_cpus3.data        16686                       # number of StoreCondReq hits
system.cpu3.dcache.StoreCondReq_hits::total        16686                       # number of StoreCondReq hits
system.cpu3.dcache.demand_hits::switch_cpus3.data     17632247                       # number of demand (read+write) hits
system.cpu3.dcache.demand_hits::total        17632247                       # number of demand (read+write) hits
system.cpu3.dcache.overall_hits::switch_cpus3.data     17632247                       # number of overall hits
system.cpu3.dcache.overall_hits::total       17632247                       # number of overall hits
system.cpu3.dcache.ReadReq_misses::switch_cpus3.data       133758                       # number of ReadReq misses
system.cpu3.dcache.ReadReq_misses::total       133758                       # number of ReadReq misses
system.cpu3.dcache.WriteReq_misses::switch_cpus3.data         2893                       # number of WriteReq misses
system.cpu3.dcache.WriteReq_misses::total         2893                       # number of WriteReq misses
system.cpu3.dcache.demand_misses::switch_cpus3.data       136651                       # number of demand (read+write) misses
system.cpu3.dcache.demand_misses::total        136651                       # number of demand (read+write) misses
system.cpu3.dcache.overall_misses::switch_cpus3.data       136651                       # number of overall misses
system.cpu3.dcache.overall_misses::total       136651                       # number of overall misses
system.cpu3.dcache.ReadReq_miss_latency::switch_cpus3.data   5645560176                       # number of ReadReq miss cycles
system.cpu3.dcache.ReadReq_miss_latency::total   5645560176                       # number of ReadReq miss cycles
system.cpu3.dcache.WriteReq_miss_latency::switch_cpus3.data    165800757                       # number of WriteReq miss cycles
system.cpu3.dcache.WriteReq_miss_latency::total    165800757                       # number of WriteReq miss cycles
system.cpu3.dcache.demand_miss_latency::switch_cpus3.data   5811360933                       # number of demand (read+write) miss cycles
system.cpu3.dcache.demand_miss_latency::total   5811360933                       # number of demand (read+write) miss cycles
system.cpu3.dcache.overall_miss_latency::switch_cpus3.data   5811360933                       # number of overall miss cycles
system.cpu3.dcache.overall_miss_latency::total   5811360933                       # number of overall miss cycles
system.cpu3.dcache.ReadReq_accesses::switch_cpus3.data     10573273                       # number of ReadReq accesses(hits+misses)
system.cpu3.dcache.ReadReq_accesses::total     10573273                       # number of ReadReq accesses(hits+misses)
system.cpu3.dcache.WriteReq_accesses::switch_cpus3.data      7195625                       # number of WriteReq accesses(hits+misses)
system.cpu3.dcache.WriteReq_accesses::total      7195625                       # number of WriteReq accesses(hits+misses)
system.cpu3.dcache.LoadLockedReq_accesses::switch_cpus3.data        17609                       # number of LoadLockedReq accesses(hits+misses)
system.cpu3.dcache.LoadLockedReq_accesses::total        17609                       # number of LoadLockedReq accesses(hits+misses)
system.cpu3.dcache.StoreCondReq_accesses::switch_cpus3.data        16686                       # number of StoreCondReq accesses(hits+misses)
system.cpu3.dcache.StoreCondReq_accesses::total        16686                       # number of StoreCondReq accesses(hits+misses)
system.cpu3.dcache.demand_accesses::switch_cpus3.data     17768898                       # number of demand (read+write) accesses
system.cpu3.dcache.demand_accesses::total     17768898                       # number of demand (read+write) accesses
system.cpu3.dcache.overall_accesses::switch_cpus3.data     17768898                       # number of overall (read+write) accesses
system.cpu3.dcache.overall_accesses::total     17768898                       # number of overall (read+write) accesses
system.cpu3.dcache.ReadReq_miss_rate::switch_cpus3.data     0.012651                       # miss rate for ReadReq accesses
system.cpu3.dcache.ReadReq_miss_rate::total     0.012651                       # miss rate for ReadReq accesses
system.cpu3.dcache.WriteReq_miss_rate::switch_cpus3.data     0.000402                       # miss rate for WriteReq accesses
system.cpu3.dcache.WriteReq_miss_rate::total     0.000402                       # miss rate for WriteReq accesses
system.cpu3.dcache.demand_miss_rate::switch_cpus3.data     0.007690                       # miss rate for demand accesses
system.cpu3.dcache.demand_miss_rate::total     0.007690                       # miss rate for demand accesses
system.cpu3.dcache.overall_miss_rate::switch_cpus3.data     0.007690                       # miss rate for overall accesses
system.cpu3.dcache.overall_miss_rate::total     0.007690                       # miss rate for overall accesses
system.cpu3.dcache.ReadReq_avg_miss_latency::switch_cpus3.data 42207.271161                       # average ReadReq miss latency
system.cpu3.dcache.ReadReq_avg_miss_latency::total 42207.271161                       # average ReadReq miss latency
system.cpu3.dcache.WriteReq_avg_miss_latency::switch_cpus3.data 57311.011753                       # average WriteReq miss latency
system.cpu3.dcache.WriteReq_avg_miss_latency::total 57311.011753                       # average WriteReq miss latency
system.cpu3.dcache.demand_avg_miss_latency::switch_cpus3.data 42527.028218                       # average overall miss latency
system.cpu3.dcache.demand_avg_miss_latency::total 42527.028218                       # average overall miss latency
system.cpu3.dcache.overall_avg_miss_latency::switch_cpus3.data 42527.028218                       # average overall miss latency
system.cpu3.dcache.overall_avg_miss_latency::total 42527.028218                       # average overall miss latency
system.cpu3.dcache.blocked_cycles::no_mshrs            0                       # number of cycles access was blocked
system.cpu3.dcache.blocked_cycles::no_targets       469453                       # number of cycles access was blocked
system.cpu3.dcache.blocked::no_mshrs                0                       # number of cycles access was blocked
system.cpu3.dcache.blocked::no_targets             14                       # number of cycles access was blocked
system.cpu3.dcache.avg_blocked_cycles::no_mshrs          nan                       # average number of cycles each access was blocked
system.cpu3.dcache.avg_blocked_cycles::no_targets 33532.357143                       # average number of cycles each access was blocked
system.cpu3.dcache.fast_writes                      0                       # number of fast writes performed
system.cpu3.dcache.cache_copies                     0                       # number of cache copies performed
system.cpu3.dcache.writebacks::writebacks        18713                       # number of writebacks
system.cpu3.dcache.writebacks::total            18713                       # number of writebacks
system.cpu3.dcache.ReadReq_mshr_hits::switch_cpus3.data        81433                       # number of ReadReq MSHR hits
system.cpu3.dcache.ReadReq_mshr_hits::total        81433                       # number of ReadReq MSHR hits
system.cpu3.dcache.WriteReq_mshr_hits::switch_cpus3.data         2892                       # number of WriteReq MSHR hits
system.cpu3.dcache.WriteReq_mshr_hits::total         2892                       # number of WriteReq MSHR hits
system.cpu3.dcache.demand_mshr_hits::switch_cpus3.data        84325                       # number of demand (read+write) MSHR hits
system.cpu3.dcache.demand_mshr_hits::total        84325                       # number of demand (read+write) MSHR hits
system.cpu3.dcache.overall_mshr_hits::switch_cpus3.data        84325                       # number of overall MSHR hits
system.cpu3.dcache.overall_mshr_hits::total        84325                       # number of overall MSHR hits
system.cpu3.dcache.ReadReq_mshr_misses::switch_cpus3.data        52325                       # number of ReadReq MSHR misses
system.cpu3.dcache.ReadReq_mshr_misses::total        52325                       # number of ReadReq MSHR misses
system.cpu3.dcache.WriteReq_mshr_misses::switch_cpus3.data            1                       # number of WriteReq MSHR misses
system.cpu3.dcache.WriteReq_mshr_misses::total            1                       # number of WriteReq MSHR misses
system.cpu3.dcache.demand_mshr_misses::switch_cpus3.data        52326                       # number of demand (read+write) MSHR misses
system.cpu3.dcache.demand_mshr_misses::total        52326                       # number of demand (read+write) MSHR misses
system.cpu3.dcache.overall_mshr_misses::switch_cpus3.data        52326                       # number of overall MSHR misses
system.cpu3.dcache.overall_mshr_misses::total        52326                       # number of overall MSHR misses
system.cpu3.dcache.ReadReq_mshr_miss_latency::switch_cpus3.data   1323167657                       # number of ReadReq MSHR miss cycles
system.cpu3.dcache.ReadReq_mshr_miss_latency::total   1323167657                       # number of ReadReq MSHR miss cycles
system.cpu3.dcache.WriteReq_mshr_miss_latency::switch_cpus3.data        27895                       # number of WriteReq MSHR miss cycles
system.cpu3.dcache.WriteReq_mshr_miss_latency::total        27895                       # number of WriteReq MSHR miss cycles
system.cpu3.dcache.demand_mshr_miss_latency::switch_cpus3.data   1323195552                       # number of demand (read+write) MSHR miss cycles
system.cpu3.dcache.demand_mshr_miss_latency::total   1323195552                       # number of demand (read+write) MSHR miss cycles
system.cpu3.dcache.overall_mshr_miss_latency::switch_cpus3.data   1323195552                       # number of overall MSHR miss cycles
system.cpu3.dcache.overall_mshr_miss_latency::total   1323195552                       # number of overall MSHR miss cycles
system.cpu3.dcache.ReadReq_mshr_miss_rate::switch_cpus3.data     0.004949                       # mshr miss rate for ReadReq accesses
system.cpu3.dcache.ReadReq_mshr_miss_rate::total     0.004949                       # mshr miss rate for ReadReq accesses
system.cpu3.dcache.WriteReq_mshr_miss_rate::switch_cpus3.data     0.000000                       # mshr miss rate for WriteReq accesses
system.cpu3.dcache.WriteReq_mshr_miss_rate::total     0.000000                       # mshr miss rate for WriteReq accesses
system.cpu3.dcache.demand_mshr_miss_rate::switch_cpus3.data     0.002945                       # mshr miss rate for demand accesses
system.cpu3.dcache.demand_mshr_miss_rate::total     0.002945                       # mshr miss rate for demand accesses
system.cpu3.dcache.overall_mshr_miss_rate::switch_cpus3.data     0.002945                       # mshr miss rate for overall accesses
system.cpu3.dcache.overall_mshr_miss_rate::total     0.002945                       # mshr miss rate for overall accesses
system.cpu3.dcache.ReadReq_avg_mshr_miss_latency::switch_cpus3.data 25287.485084                       # average ReadReq mshr miss latency
system.cpu3.dcache.ReadReq_avg_mshr_miss_latency::total 25287.485084                       # average ReadReq mshr miss latency
system.cpu3.dcache.WriteReq_avg_mshr_miss_latency::switch_cpus3.data        27895                       # average WriteReq mshr miss latency
system.cpu3.dcache.WriteReq_avg_mshr_miss_latency::total        27895                       # average WriteReq mshr miss latency
system.cpu3.dcache.demand_avg_mshr_miss_latency::switch_cpus3.data 25287.534916                       # average overall mshr miss latency
system.cpu3.dcache.demand_avg_mshr_miss_latency::total 25287.534916                       # average overall mshr miss latency
system.cpu3.dcache.overall_avg_mshr_miss_latency::switch_cpus3.data 25287.534916                       # average overall mshr miss latency
system.cpu3.dcache.overall_avg_mshr_miss_latency::total 25287.534916                       # average overall mshr miss latency
system.cpu3.dcache.no_allocate_misses               0                       # Number of misses that were no-allocate

---------- End Simulation Statistics   ----------
