
---------- Begin Simulation Statistics ----------
sim_seconds                                  0.118809                       # Number of seconds simulated
sim_ticks                                118809208133                       # Number of ticks simulated
final_tick                               1176668029446                       # Number of ticks from beginning of simulation (restored from checkpoints and never reset)
sim_freq                                 1000000000000                       # Frequency of simulated ticks
host_inst_rate                                 122045                       # Simulator instruction rate (inst/s)
host_op_rate                                   154098                       # Simulator op (including micro ops) rate (op/s)
host_tick_rate                                3284857                       # Simulator tick rate (ticks/s)
host_mem_usage                               16948652                       # Number of bytes of host memory used
host_seconds                                 36168.77                       # Real time elapsed on the host
sim_insts                                  4414212848                       # Number of instructions simulated
sim_ops                                    5573544328                       # Number of ops (including micro ops) simulated
system.physmem.bytes_read::switch_cpus0.inst         1280                       # Number of bytes read from this memory
system.physmem.bytes_read::switch_cpus0.data       774272                       # Number of bytes read from this memory
system.physmem.bytes_read::switch_cpus1.inst         1792                       # Number of bytes read from this memory
system.physmem.bytes_read::switch_cpus1.data       242816                       # Number of bytes read from this memory
system.physmem.bytes_read::switch_cpus2.inst         1920                       # Number of bytes read from this memory
system.physmem.bytes_read::switch_cpus2.data       234112                       # Number of bytes read from this memory
system.physmem.bytes_read::switch_cpus3.inst         1792                       # Number of bytes read from this memory
system.physmem.bytes_read::switch_cpus3.data       412800                       # Number of bytes read from this memory
system.physmem.bytes_read::total              1670784                       # Number of bytes read from this memory
system.physmem.bytes_inst_read::switch_cpus0.inst         1280                       # Number of instructions bytes read from this memory
system.physmem.bytes_inst_read::switch_cpus1.inst         1792                       # Number of instructions bytes read from this memory
system.physmem.bytes_inst_read::switch_cpus2.inst         1920                       # Number of instructions bytes read from this memory
system.physmem.bytes_inst_read::switch_cpus3.inst         1792                       # Number of instructions bytes read from this memory
system.physmem.bytes_inst_read::total            6784                       # Number of instructions bytes read from this memory
system.physmem.bytes_written::writebacks      1346432                       # Number of bytes written to this memory
system.physmem.bytes_written::total           1346432                       # Number of bytes written to this memory
system.physmem.num_reads::switch_cpus0.inst           10                       # Number of read requests responded to by this memory
system.physmem.num_reads::switch_cpus0.data         6049                       # Number of read requests responded to by this memory
system.physmem.num_reads::switch_cpus1.inst           14                       # Number of read requests responded to by this memory
system.physmem.num_reads::switch_cpus1.data         1897                       # Number of read requests responded to by this memory
system.physmem.num_reads::switch_cpus2.inst           15                       # Number of read requests responded to by this memory
system.physmem.num_reads::switch_cpus2.data         1829                       # Number of read requests responded to by this memory
system.physmem.num_reads::switch_cpus3.inst           14                       # Number of read requests responded to by this memory
system.physmem.num_reads::switch_cpus3.data         3225                       # Number of read requests responded to by this memory
system.physmem.num_reads::total                 13053                       # Number of read requests responded to by this memory
system.physmem.num_writes::writebacks           10519                       # Number of write requests responded to by this memory
system.physmem.num_writes::functional               0                       # Number of write requests responded to by this memory
system.physmem.num_writes::interrupt                0                       # Number of write requests responded to by this memory
system.physmem.num_writes::switch_cpus0.dtb.walker            0                       # Number of write requests responded to by this memory
system.physmem.num_writes::switch_cpus0.itb.walker            0                       # Number of write requests responded to by this memory
system.physmem.num_writes::switch_cpus0.inst            0                       # Number of write requests responded to by this memory
system.physmem.num_writes::switch_cpus0.data            0                       # Number of write requests responded to by this memory
system.physmem.num_writes::switch_cpus1.dtb.walker            0                       # Number of write requests responded to by this memory
system.physmem.num_writes::switch_cpus1.itb.walker            0                       # Number of write requests responded to by this memory
system.physmem.num_writes::switch_cpus1.inst            0                       # Number of write requests responded to by this memory
system.physmem.num_writes::switch_cpus1.data            0                       # Number of write requests responded to by this memory
system.physmem.num_writes::switch_cpus2.dtb.walker            0                       # Number of write requests responded to by this memory
system.physmem.num_writes::switch_cpus2.itb.walker            0                       # Number of write requests responded to by this memory
system.physmem.num_writes::switch_cpus2.inst            0                       # Number of write requests responded to by this memory
system.physmem.num_writes::switch_cpus2.data            0                       # Number of write requests responded to by this memory
system.physmem.num_writes::switch_cpus3.dtb.walker            0                       # Number of write requests responded to by this memory
system.physmem.num_writes::switch_cpus3.itb.walker            0                       # Number of write requests responded to by this memory
system.physmem.num_writes::switch_cpus3.inst            0                       # Number of write requests responded to by this memory
system.physmem.num_writes::switch_cpus3.data            0                       # Number of write requests responded to by this memory
system.physmem.num_writes::cpu0.dtb.walker            0                       # Number of write requests responded to by this memory
system.physmem.num_writes::cpu0.itb.walker            0                       # Number of write requests responded to by this memory
system.physmem.num_writes::cpu0.inst                0                       # Number of write requests responded to by this memory
system.physmem.num_writes::cpu0.data                0                       # Number of write requests responded to by this memory
system.physmem.num_writes::cpu1.dtb.walker            0                       # Number of write requests responded to by this memory
system.physmem.num_writes::cpu1.itb.walker            0                       # Number of write requests responded to by this memory
system.physmem.num_writes::cpu1.inst                0                       # Number of write requests responded to by this memory
system.physmem.num_writes::cpu1.data                0                       # Number of write requests responded to by this memory
system.physmem.num_writes::cpu2.dtb.walker            0                       # Number of write requests responded to by this memory
system.physmem.num_writes::cpu2.itb.walker            0                       # Number of write requests responded to by this memory
system.physmem.num_writes::cpu2.inst                0                       # Number of write requests responded to by this memory
system.physmem.num_writes::cpu2.data                0                       # Number of write requests responded to by this memory
system.physmem.num_writes::cpu3.dtb.walker            0                       # Number of write requests responded to by this memory
system.physmem.num_writes::cpu3.itb.walker            0                       # Number of write requests responded to by this memory
system.physmem.num_writes::cpu3.inst                0                       # Number of write requests responded to by this memory
system.physmem.num_writes::cpu3.data                0                       # Number of write requests responded to by this memory
system.physmem.num_writes::total                10519                       # Number of write requests responded to by this memory
system.physmem.bw_read::switch_cpus0.inst        10774                       # Total read bandwidth from this memory (bytes/s)
system.physmem.bw_read::switch_cpus0.data      6516936                       # Total read bandwidth from this memory (bytes/s)
system.physmem.bw_read::switch_cpus1.inst        15083                       # Total read bandwidth from this memory (bytes/s)
system.physmem.bw_read::switch_cpus1.data      2043747                       # Total read bandwidth from this memory (bytes/s)
system.physmem.bw_read::switch_cpus2.inst        16160                       # Total read bandwidth from this memory (bytes/s)
system.physmem.bw_read::switch_cpus2.data      1970487                       # Total read bandwidth from this memory (bytes/s)
system.physmem.bw_read::switch_cpus3.inst        15083                       # Total read bandwidth from this memory (bytes/s)
system.physmem.bw_read::switch_cpus3.data      3474478                       # Total read bandwidth from this memory (bytes/s)
system.physmem.bw_read::total                14062748                       # Total read bandwidth from this memory (bytes/s)
system.physmem.bw_inst_read::switch_cpus0.inst        10774                       # Instruction read bandwidth from this memory (bytes/s)
system.physmem.bw_inst_read::switch_cpus1.inst        15083                       # Instruction read bandwidth from this memory (bytes/s)
system.physmem.bw_inst_read::switch_cpus2.inst        16160                       # Instruction read bandwidth from this memory (bytes/s)
system.physmem.bw_inst_read::switch_cpus3.inst        15083                       # Instruction read bandwidth from this memory (bytes/s)
system.physmem.bw_inst_read::total              57100                       # Instruction read bandwidth from this memory (bytes/s)
system.physmem.bw_write::writebacks          11332724                       # Write bandwidth from this memory (bytes/s)
system.physmem.bw_write::total               11332724                       # Write bandwidth from this memory (bytes/s)
system.physmem.bw_total::writebacks          11332724                       # Total bandwidth to/from this memory (bytes/s)
system.physmem.bw_total::switch_cpus0.inst        10774                       # Total bandwidth to/from this memory (bytes/s)
system.physmem.bw_total::switch_cpus0.data      6516936                       # Total bandwidth to/from this memory (bytes/s)
system.physmem.bw_total::switch_cpus1.inst        15083                       # Total bandwidth to/from this memory (bytes/s)
system.physmem.bw_total::switch_cpus1.data      2043747                       # Total bandwidth to/from this memory (bytes/s)
system.physmem.bw_total::switch_cpus2.inst        16160                       # Total bandwidth to/from this memory (bytes/s)
system.physmem.bw_total::switch_cpus2.data      1970487                       # Total bandwidth to/from this memory (bytes/s)
system.physmem.bw_total::switch_cpus3.inst        15083                       # Total bandwidth to/from this memory (bytes/s)
system.physmem.bw_total::switch_cpus3.data      3474478                       # Total bandwidth to/from this memory (bytes/s)
system.physmem.bw_total::total               25395473                       # Total bandwidth to/from this memory (bytes/s)
system.switch_cpus0.dtb.inst_hits                   0                       # ITB inst hits
system.switch_cpus0.dtb.inst_misses                 0                       # ITB inst misses
system.switch_cpus0.dtb.read_hits                   0                       # DTB read hits
system.switch_cpus0.dtb.read_misses                 0                       # DTB read misses
system.switch_cpus0.dtb.write_hits                  0                       # DTB write hits
system.switch_cpus0.dtb.write_misses                0                       # DTB write misses
system.switch_cpus0.dtb.flush_tlb                   0                       # Number of times complete TLB was flushed
system.switch_cpus0.dtb.flush_tlb_mva               0                       # Number of times TLB was flushed by MVA
system.switch_cpus0.dtb.flush_tlb_mva_asid            0                       # Number of times TLB was flushed by MVA & ASID
system.switch_cpus0.dtb.flush_tlb_asid              0                       # Number of times TLB was flushed by ASID
system.switch_cpus0.dtb.flush_entries               0                       # Number of entries that have been flushed from TLB
system.switch_cpus0.dtb.align_faults                0                       # Number of TLB faults due to alignment restrictions
system.switch_cpus0.dtb.prefetch_faults             0                       # Number of TLB faults due to prefetch
system.switch_cpus0.dtb.domain_faults               0                       # Number of TLB faults due to domain restrictions
system.switch_cpus0.dtb.perms_faults                0                       # Number of TLB faults due to permissions restrictions
system.switch_cpus0.dtb.read_accesses               0                       # DTB read accesses
system.switch_cpus0.dtb.write_accesses              0                       # DTB write accesses
system.switch_cpus0.dtb.inst_accesses               0                       # ITB inst accesses
system.switch_cpus0.dtb.hits                        0                       # DTB hits
system.switch_cpus0.dtb.misses                      0                       # DTB misses
system.switch_cpus0.dtb.accesses                    0                       # DTB accesses
system.switch_cpus0.itb.inst_hits                   0                       # ITB inst hits
system.switch_cpus0.itb.inst_misses                 0                       # ITB inst misses
system.switch_cpus0.itb.read_hits                   0                       # DTB read hits
system.switch_cpus0.itb.read_misses                 0                       # DTB read misses
system.switch_cpus0.itb.write_hits                  0                       # DTB write hits
system.switch_cpus0.itb.write_misses                0                       # DTB write misses
system.switch_cpus0.itb.flush_tlb                   0                       # Number of times complete TLB was flushed
system.switch_cpus0.itb.flush_tlb_mva               0                       # Number of times TLB was flushed by MVA
system.switch_cpus0.itb.flush_tlb_mva_asid            0                       # Number of times TLB was flushed by MVA & ASID
system.switch_cpus0.itb.flush_tlb_asid              0                       # Number of times TLB was flushed by ASID
system.switch_cpus0.itb.flush_entries               0                       # Number of entries that have been flushed from TLB
system.switch_cpus0.itb.align_faults                0                       # Number of TLB faults due to alignment restrictions
system.switch_cpus0.itb.prefetch_faults             0                       # Number of TLB faults due to prefetch
system.switch_cpus0.itb.domain_faults               0                       # Number of TLB faults due to domain restrictions
system.switch_cpus0.itb.perms_faults                0                       # Number of TLB faults due to permissions restrictions
system.switch_cpus0.itb.read_accesses               0                       # DTB read accesses
system.switch_cpus0.itb.write_accesses              0                       # DTB write accesses
system.switch_cpus0.itb.inst_accesses               0                       # ITB inst accesses
system.switch_cpus0.itb.hits                        0                       # DTB hits
system.switch_cpus0.itb.misses                      0                       # DTB misses
system.switch_cpus0.itb.accesses                    0                       # DTB accesses
system.cpu0.workload.num_syscalls                   0                       # Number of system calls
system.switch_cpus0.numCycles               142628102                       # number of cpu cycles simulated
system.switch_cpus0.numWorkItemsStarted             0                       # number of work items this cpu started
system.switch_cpus0.numWorkItemsCompleted            0                       # number of work items this cpu completed
system.switch_cpus0.BPredUnit.lookups        23172720                       # Number of BP lookups
system.switch_cpus0.BPredUnit.condPredicted     19082549                       # Number of conditional branches predicted
system.switch_cpus0.BPredUnit.condIncorrect      1933320                       # Number of conditional branches incorrect
system.switch_cpus0.BPredUnit.BTBLookups      9423982                       # Number of BTB lookups
system.switch_cpus0.BPredUnit.BTBHits         8669981                       # Number of BTB hits
system.switch_cpus0.BPredUnit.BTBCorrect            0                       # Number of correct BTB predictions (this stat may not work properly.
system.switch_cpus0.BPredUnit.usedRAS         2437817                       # Number of times the RAS was used to get a target.
system.switch_cpus0.BPredUnit.RASInCorrect        87745                       # Number of incorrect RAS predictions.
system.switch_cpus0.fetch.icacheStallCycles    104509830                       # Number of cycles fetch is stalled on an Icache miss
system.switch_cpus0.fetch.Insts             128062549                       # Number of instructions fetch has processed
system.switch_cpus0.fetch.Branches           23172720                       # Number of branches that fetch encountered
system.switch_cpus0.fetch.predictedBranches     11107798                       # Number of branches that fetch has predicted taken
system.switch_cpus0.fetch.Cycles             27192156                       # Number of cycles fetch has run and was not squashing or blocked
system.switch_cpus0.fetch.SquashCycles        6266196                       # Number of cycles fetch has spent squashing
system.switch_cpus0.fetch.BlockedCycles       4539732                       # Number of cycles fetch has spent blocked
system.switch_cpus0.fetch.CacheLines         12108348                       # Number of cache lines fetched
system.switch_cpus0.fetch.IcacheSquashes      1575173                       # Number of outstanding Icache misses that were squashed
system.switch_cpus0.fetch.rateDist::samples    140542635                       # Number of instructions fetched each cycle (Total)
system.switch_cpus0.fetch.rateDist::mean     1.109917                       # Number of instructions fetched each cycle (Total)
system.switch_cpus0.fetch.rateDist::stdev     2.551389                       # Number of instructions fetched each cycle (Total)
system.switch_cpus0.fetch.rateDist::underflows            0      0.00%      0.00% # Number of instructions fetched each cycle (Total)
system.switch_cpus0.fetch.rateDist::0       113350479     80.65%     80.65% # Number of instructions fetched each cycle (Total)
system.switch_cpus0.fetch.rateDist::1         2782171      1.98%     82.63% # Number of instructions fetched each cycle (Total)
system.switch_cpus0.fetch.rateDist::2         2364393      1.68%     84.31% # Number of instructions fetched each cycle (Total)
system.switch_cpus0.fetch.rateDist::3         2381260      1.69%     86.01% # Number of instructions fetched each cycle (Total)
system.switch_cpus0.fetch.rateDist::4         2266124      1.61%     87.62% # Number of instructions fetched each cycle (Total)
system.switch_cpus0.fetch.rateDist::5         1125132      0.80%     88.42% # Number of instructions fetched each cycle (Total)
system.switch_cpus0.fetch.rateDist::6          779401      0.55%     88.98% # Number of instructions fetched each cycle (Total)
system.switch_cpus0.fetch.rateDist::7         1980016      1.41%     90.38% # Number of instructions fetched each cycle (Total)
system.switch_cpus0.fetch.rateDist::8        13513659      9.62%    100.00% # Number of instructions fetched each cycle (Total)
system.switch_cpus0.fetch.rateDist::overflows            0      0.00%    100.00% # Number of instructions fetched each cycle (Total)
system.switch_cpus0.fetch.rateDist::min_value            0                       # Number of instructions fetched each cycle (Total)
system.switch_cpus0.fetch.rateDist::max_value            8                       # Number of instructions fetched each cycle (Total)
system.switch_cpus0.fetch.rateDist::total    140542635                       # Number of instructions fetched each cycle (Total)
system.switch_cpus0.fetch.branchRate         0.162470                       # Number of branch fetches per cycle
system.switch_cpus0.fetch.rate               0.897877                       # Number of inst fetches per cycle
system.switch_cpus0.decode.IdleCycles       103342166                       # Number of cycles decode is idle
system.switch_cpus0.decode.BlockedCycles      5951555                       # Number of cycles decode is blocked
system.switch_cpus0.decode.RunCycles         26844870                       # Number of cycles decode is running
system.switch_cpus0.decode.UnblockCycles       109583                       # Number of cycles decode is unblocking
system.switch_cpus0.decode.SquashCycles       4294452                       # Number of cycles decode is squashing
system.switch_cpus0.decode.BranchResolved      3730853                       # Number of times decode resolved a branch
system.switch_cpus0.decode.BranchMispred         6466                       # Number of times decode detected a branch misprediction
system.switch_cpus0.decode.DecodedInsts     154466962                       # Number of instructions handled by decode
system.switch_cpus0.decode.SquashedInsts        51186                       # Number of squashed instructions handled by decode
system.switch_cpus0.rename.SquashCycles       4294452                       # Number of cycles rename is squashing
system.switch_cpus0.rename.IdleCycles       103857181                       # Number of cycles rename is idle
system.switch_cpus0.rename.BlockCycles        3513915                       # Number of cycles rename is blocking
system.switch_cpus0.rename.serializeStallCycles      1287674                       # count of cycles rename stalled for serializing inst
system.switch_cpus0.rename.RunCycles         26429189                       # Number of cycles rename is running
system.switch_cpus0.rename.UnblockCycles      1160216                       # Number of cycles rename is unblocking
system.switch_cpus0.rename.RenamedInsts     153021016                       # Number of instructions processed by rename
system.switch_cpus0.rename.ROBFullEvents          500                       # Number of times rename has blocked due to ROB full
system.switch_cpus0.rename.IQFullEvents        402206                       # Number of times rename has blocked due to IQ full
system.switch_cpus0.rename.LSQFullEvents       622558                       # Number of times rename has blocked due to LSQ full
system.switch_cpus0.rename.FullRegisterEvents         8688                       # Number of times there has been no free registers
system.switch_cpus0.rename.RenamedOperands    214098770                       # Number of destination operands rename has renamed
system.switch_cpus0.rename.RenameLookups    713256338                       # Number of register rename lookups that rename has made
system.switch_cpus0.rename.int_rename_lookups    713256338                       # Number of integer rename lookups
system.switch_cpus0.rename.CommittedMaps    168259218                       # Number of HB maps that are committed
system.switch_cpus0.rename.UndoneMaps        45839545                       # Number of HB maps that are undone due to squashing
system.switch_cpus0.rename.serializingInsts        33502                       # count of serializing insts renamed
system.switch_cpus0.rename.tempSerializingInsts        17480                       # count of temporary serializing insts renamed
system.switch_cpus0.rename.skidInsts          3799040                       # count of insts added to the skid buffer
system.switch_cpus0.memDep0.insertedLoads     15188062                       # Number of loads inserted to the mem dependence unit.
system.switch_cpus0.memDep0.insertedStores      7901444                       # Number of stores inserted to the mem dependence unit.
system.switch_cpus0.memDep0.conflictingLoads       308478                       # Number of conflicting loads.
system.switch_cpus0.memDep0.conflictingStores      1681475                       # Number of conflicting stores.
system.switch_cpus0.iq.iqInstsAdded         149158312                       # Number of instructions added to the IQ (excludes non-spec)
system.switch_cpus0.iq.iqNonSpecInstsAdded        33500                       # Number of non-speculative instructions added to the IQ
system.switch_cpus0.iq.iqInstsIssued        139212938                       # Number of instructions issued
system.switch_cpus0.iq.iqSquashedInstsIssued       108729                       # Number of squashed instructions issued
system.switch_cpus0.iq.iqSquashedInstsExamined     25223941                       # Number of squashed instructions iterated over during squash; mainly for profiling
system.switch_cpus0.iq.iqSquashedOperandsExamined     57181755                       # Number of squashed operands that are examined and possibly removed from graph
system.switch_cpus0.iq.iqSquashedNonSpecRemoved         1456                       # Number of squashed non-spec instructions that were removed
system.switch_cpus0.iq.issued_per_cycle::samples    140542635                       # Number of insts issued each cycle
system.switch_cpus0.iq.issued_per_cycle::mean     0.990539                       # Number of insts issued each cycle
system.switch_cpus0.iq.issued_per_cycle::stdev     1.585760                       # Number of insts issued each cycle
system.switch_cpus0.iq.issued_per_cycle::underflows            0      0.00%      0.00% # Number of insts issued each cycle
system.switch_cpus0.iq.issued_per_cycle::0     83158035     59.17%     59.17% # Number of insts issued each cycle
system.switch_cpus0.iq.issued_per_cycle::1     23728844     16.88%     76.05% # Number of insts issued each cycle
system.switch_cpus0.iq.issued_per_cycle::2     11952113      8.50%     84.56% # Number of insts issued each cycle
system.switch_cpus0.iq.issued_per_cycle::3      7814230      5.56%     90.12% # Number of insts issued each cycle
system.switch_cpus0.iq.issued_per_cycle::4      6902286      4.91%     95.03% # Number of insts issued each cycle
system.switch_cpus0.iq.issued_per_cycle::5      2705821      1.93%     96.95% # Number of insts issued each cycle
system.switch_cpus0.iq.issued_per_cycle::6      3065551      2.18%     99.13% # Number of insts issued each cycle
system.switch_cpus0.iq.issued_per_cycle::7      1120417      0.80%     99.93% # Number of insts issued each cycle
system.switch_cpus0.iq.issued_per_cycle::8        95338      0.07%    100.00% # Number of insts issued each cycle
system.switch_cpus0.iq.issued_per_cycle::overflows            0      0.00%    100.00% # Number of insts issued each cycle
system.switch_cpus0.iq.issued_per_cycle::min_value            0                       # Number of insts issued each cycle
system.switch_cpus0.iq.issued_per_cycle::max_value            8                       # Number of insts issued each cycle
system.switch_cpus0.iq.issued_per_cycle::total    140542635                       # Number of insts issued each cycle
system.switch_cpus0.iq.fu_full::No_OpClass            0      0.00%      0.00% # attempts to use FU when none available
system.switch_cpus0.iq.fu_full::IntAlu         976748     74.79%     74.79% # attempts to use FU when none available
system.switch_cpus0.iq.fu_full::IntMult             0      0.00%     74.79% # attempts to use FU when none available
system.switch_cpus0.iq.fu_full::IntDiv              0      0.00%     74.79% # attempts to use FU when none available
system.switch_cpus0.iq.fu_full::FloatAdd            0      0.00%     74.79% # attempts to use FU when none available
system.switch_cpus0.iq.fu_full::FloatCmp            0      0.00%     74.79% # attempts to use FU when none available
system.switch_cpus0.iq.fu_full::FloatCvt            0      0.00%     74.79% # attempts to use FU when none available
system.switch_cpus0.iq.fu_full::FloatMult            0      0.00%     74.79% # attempts to use FU when none available
system.switch_cpus0.iq.fu_full::FloatDiv            0      0.00%     74.79% # attempts to use FU when none available
system.switch_cpus0.iq.fu_full::FloatSqrt            0      0.00%     74.79% # attempts to use FU when none available
system.switch_cpus0.iq.fu_full::SimdAdd             0      0.00%     74.79% # attempts to use FU when none available
system.switch_cpus0.iq.fu_full::SimdAddAcc            0      0.00%     74.79% # attempts to use FU when none available
system.switch_cpus0.iq.fu_full::SimdAlu             0      0.00%     74.79% # attempts to use FU when none available
system.switch_cpus0.iq.fu_full::SimdCmp             0      0.00%     74.79% # attempts to use FU when none available
system.switch_cpus0.iq.fu_full::SimdCvt             0      0.00%     74.79% # attempts to use FU when none available
system.switch_cpus0.iq.fu_full::SimdMisc            0      0.00%     74.79% # attempts to use FU when none available
system.switch_cpus0.iq.fu_full::SimdMult            0      0.00%     74.79% # attempts to use FU when none available
system.switch_cpus0.iq.fu_full::SimdMultAcc            0      0.00%     74.79% # attempts to use FU when none available
system.switch_cpus0.iq.fu_full::SimdShift            0      0.00%     74.79% # attempts to use FU when none available
system.switch_cpus0.iq.fu_full::SimdShiftAcc            0      0.00%     74.79% # attempts to use FU when none available
system.switch_cpus0.iq.fu_full::SimdSqrt            0      0.00%     74.79% # attempts to use FU when none available
system.switch_cpus0.iq.fu_full::SimdFloatAdd            0      0.00%     74.79% # attempts to use FU when none available
system.switch_cpus0.iq.fu_full::SimdFloatAlu            0      0.00%     74.79% # attempts to use FU when none available
system.switch_cpus0.iq.fu_full::SimdFloatCmp            0      0.00%     74.79% # attempts to use FU when none available
system.switch_cpus0.iq.fu_full::SimdFloatCvt            0      0.00%     74.79% # attempts to use FU when none available
system.switch_cpus0.iq.fu_full::SimdFloatDiv            0      0.00%     74.79% # attempts to use FU when none available
system.switch_cpus0.iq.fu_full::SimdFloatMisc            0      0.00%     74.79% # attempts to use FU when none available
system.switch_cpus0.iq.fu_full::SimdFloatMult            0      0.00%     74.79% # attempts to use FU when none available
system.switch_cpus0.iq.fu_full::SimdFloatMultAcc            0      0.00%     74.79% # attempts to use FU when none available
system.switch_cpus0.iq.fu_full::SimdFloatSqrt            0      0.00%     74.79% # attempts to use FU when none available
system.switch_cpus0.iq.fu_full::MemRead        156837     12.01%     86.79% # attempts to use FU when none available
system.switch_cpus0.iq.fu_full::MemWrite       172485     13.21%    100.00% # attempts to use FU when none available
system.switch_cpus0.iq.fu_full::IprAccess            0      0.00%    100.00% # attempts to use FU when none available
system.switch_cpus0.iq.fu_full::InstPrefetch            0      0.00%    100.00% # attempts to use FU when none available
system.switch_cpus0.iq.FU_type_0::No_OpClass            0      0.00%      0.00% # Type of FU issued
system.switch_cpus0.iq.FU_type_0::IntAlu    114979258     82.59%     82.59% # Type of FU issued
system.switch_cpus0.iq.FU_type_0::IntMult      2013572      1.45%     84.04% # Type of FU issued
system.switch_cpus0.iq.FU_type_0::IntDiv            0      0.00%     84.04% # Type of FU issued
system.switch_cpus0.iq.FU_type_0::FloatAdd            0      0.00%     84.04% # Type of FU issued
system.switch_cpus0.iq.FU_type_0::FloatCmp            0      0.00%     84.04% # Type of FU issued
system.switch_cpus0.iq.FU_type_0::FloatCvt            0      0.00%     84.04% # Type of FU issued
system.switch_cpus0.iq.FU_type_0::FloatMult            0      0.00%     84.04% # Type of FU issued
system.switch_cpus0.iq.FU_type_0::FloatDiv            0      0.00%     84.04% # Type of FU issued
system.switch_cpus0.iq.FU_type_0::FloatSqrt            0      0.00%     84.04% # Type of FU issued
system.switch_cpus0.iq.FU_type_0::SimdAdd            0      0.00%     84.04% # Type of FU issued
system.switch_cpus0.iq.FU_type_0::SimdAddAcc            0      0.00%     84.04% # Type of FU issued
system.switch_cpus0.iq.FU_type_0::SimdAlu            0      0.00%     84.04% # Type of FU issued
system.switch_cpus0.iq.FU_type_0::SimdCmp            0      0.00%     84.04% # Type of FU issued
system.switch_cpus0.iq.FU_type_0::SimdCvt            0      0.00%     84.04% # Type of FU issued
system.switch_cpus0.iq.FU_type_0::SimdMisc            0      0.00%     84.04% # Type of FU issued
system.switch_cpus0.iq.FU_type_0::SimdMult            0      0.00%     84.04% # Type of FU issued
system.switch_cpus0.iq.FU_type_0::SimdMultAcc            0      0.00%     84.04% # Type of FU issued
system.switch_cpus0.iq.FU_type_0::SimdShift            0      0.00%     84.04% # Type of FU issued
system.switch_cpus0.iq.FU_type_0::SimdShiftAcc            0      0.00%     84.04% # Type of FU issued
system.switch_cpus0.iq.FU_type_0::SimdSqrt            0      0.00%     84.04% # Type of FU issued
system.switch_cpus0.iq.FU_type_0::SimdFloatAdd            0      0.00%     84.04% # Type of FU issued
system.switch_cpus0.iq.FU_type_0::SimdFloatAlu            0      0.00%     84.04% # Type of FU issued
system.switch_cpus0.iq.FU_type_0::SimdFloatCmp            0      0.00%     84.04% # Type of FU issued
system.switch_cpus0.iq.FU_type_0::SimdFloatCvt            0      0.00%     84.04% # Type of FU issued
system.switch_cpus0.iq.FU_type_0::SimdFloatDiv            0      0.00%     84.04% # Type of FU issued
system.switch_cpus0.iq.FU_type_0::SimdFloatMisc        16022      0.01%     84.05% # Type of FU issued
system.switch_cpus0.iq.FU_type_0::SimdFloatMult            0      0.00%     84.05% # Type of FU issued
system.switch_cpus0.iq.FU_type_0::SimdFloatMultAcc            0      0.00%     84.05% # Type of FU issued
system.switch_cpus0.iq.FU_type_0::SimdFloatSqrt            0      0.00%     84.05% # Type of FU issued
system.switch_cpus0.iq.FU_type_0::MemRead     14359304     10.31%     94.36% # Type of FU issued
system.switch_cpus0.iq.FU_type_0::MemWrite      7844782      5.64%    100.00% # Type of FU issued
system.switch_cpus0.iq.FU_type_0::IprAccess            0      0.00%    100.00% # Type of FU issued
system.switch_cpus0.iq.FU_type_0::InstPrefetch            0      0.00%    100.00% # Type of FU issued
system.switch_cpus0.iq.FU_type_0::total     139212938                       # Type of FU issued
system.switch_cpus0.iq.rate                  0.976055                       # Inst issue rate
system.switch_cpus0.iq.fu_busy_cnt            1306070                       # FU busy when requested
system.switch_cpus0.iq.fu_busy_rate          0.009382                       # FU busy rate (busy events/executed inst)
system.switch_cpus0.iq.int_inst_queue_reads    420383310                       # Number of integer instruction queue reads
system.switch_cpus0.iq.int_inst_queue_writes    174416416                       # Number of integer instruction queue writes
system.switch_cpus0.iq.int_inst_queue_wakeup_accesses    135101130                       # Number of integer instruction queue wakeup accesses
system.switch_cpus0.iq.fp_inst_queue_reads            0                       # Number of floating instruction queue reads
system.switch_cpus0.iq.fp_inst_queue_writes            0                       # Number of floating instruction queue writes
system.switch_cpus0.iq.fp_inst_queue_wakeup_accesses            0                       # Number of floating instruction queue wakeup accesses
system.switch_cpus0.iq.int_alu_accesses     140519008                       # Number of integer alu accesses
system.switch_cpus0.iq.fp_alu_accesses              0                       # Number of floating point alu accesses
system.switch_cpus0.iew.lsq.thread0.forwLoads       201558                       # Number of loads that had data forwarded from stores
system.switch_cpus0.iew.lsq.thread0.invAddrLoads            0                       # Number of loads ignored due to an invalid address
system.switch_cpus0.iew.lsq.thread0.squashedLoads      2975933                       # Number of loads squashed
system.switch_cpus0.iew.lsq.thread0.ignoredResponses         1311                       # Number of memory responses ignored because the instruction is squashed
system.switch_cpus0.iew.lsq.thread0.memOrderViolation          674                       # Number of memory ordering violations
system.switch_cpus0.iew.lsq.thread0.squashedStores       159774                       # Number of stores squashed
system.switch_cpus0.iew.lsq.thread0.invAddrSwpfs            0                       # Number of software prefetches ignored due to an invalid address
system.switch_cpus0.iew.lsq.thread0.blockedLoads            0                       # Number of blocked loads due to partial load-store forwarding
system.switch_cpus0.iew.lsq.thread0.rescheduledLoads          594                       # Number of loads that were rescheduled
system.switch_cpus0.iew.lsq.thread0.cacheBlocked            0                       # Number of times an access to memory failed due to the cache being blocked
system.switch_cpus0.iew.iewIdleCycles               0                       # Number of cycles IEW is idle
system.switch_cpus0.iew.iewSquashCycles       4294452                       # Number of cycles IEW is squashing
system.switch_cpus0.iew.iewBlockCycles        2856374                       # Number of cycles IEW is blocking
system.switch_cpus0.iew.iewUnblockCycles       249483                       # Number of cycles IEW is unblocking
system.switch_cpus0.iew.iewDispatchedInsts    149191812                       # Number of instructions dispatched to IQ
system.switch_cpus0.iew.iewDispSquashedInsts      1164129                       # Number of squashed instructions skipped by dispatch
system.switch_cpus0.iew.iewDispLoadInsts     15188062                       # Number of dispatched load instructions
system.switch_cpus0.iew.iewDispStoreInsts      7901444                       # Number of dispatched store instructions
system.switch_cpus0.iew.iewDispNonSpecInsts        17478                       # Number of dispatched non-speculative instructions
system.switch_cpus0.iew.iewIQFullEvents        198465                       # Number of times the IQ has become full, causing a stall
system.switch_cpus0.iew.iewLSQFullEvents        13024                       # Number of times the LSQ has become full, causing a stall
system.switch_cpus0.iew.memOrderViolationEvents          674                       # Number of memory order violations
system.switch_cpus0.iew.predictedTakenIncorrect      1150748                       # Number of branches that were predicted taken incorrectly
system.switch_cpus0.iew.predictedNotTakenIncorrect      1085188                       # Number of branches that were predicted not taken incorrectly
system.switch_cpus0.iew.branchMispredicts      2235936                       # Number of branch mispredicts detected at execute
system.switch_cpus0.iew.iewExecutedInsts    136838813                       # Number of executed instructions
system.switch_cpus0.iew.iewExecLoadInsts     14109741                       # Number of load instructions executed
system.switch_cpus0.iew.iewExecSquashedInsts      2374125                       # Number of squashed instructions skipped in execute
system.switch_cpus0.iew.exec_swp                    0                       # number of swp insts executed
system.switch_cpus0.iew.exec_nop                    0                       # number of nop insts executed
system.switch_cpus0.iew.exec_refs            21952940                       # number of memory reference insts executed
system.switch_cpus0.iew.exec_branches        19293759                       # Number of branches executed
system.switch_cpus0.iew.exec_stores           7843199                       # Number of stores executed
system.switch_cpus0.iew.exec_rate            0.959410                       # Inst execution rate
system.switch_cpus0.iew.wb_sent             135107912                       # cumulative count of insts sent to commit
system.switch_cpus0.iew.wb_count            135101130                       # cumulative count of insts written-back
system.switch_cpus0.iew.wb_producers         81532391                       # num instructions producing a value
system.switch_cpus0.iew.wb_consumers        221187528                       # num instructions consuming a value
system.switch_cpus0.iew.wb_penalized                0                       # number of instrctions required to write to 'other' IQ
system.switch_cpus0.iew.wb_rate              0.947227                       # insts written-back per cycle
system.switch_cpus0.iew.wb_fanout            0.368612                       # average fanout of values written-back
system.switch_cpus0.iew.wb_penalized_rate            0                       # fraction of instructions written-back that wrote to 'other' IQ
system.switch_cpus0.commit.commitCommittedInsts    100000000                       # The number of committed instructions
system.switch_cpus0.commit.commitCommittedOps    122421916                       # The number of committed instructions
system.switch_cpus0.commit.commitSquashedInsts     26777700                       # The number of squashed insts skipped by commit
system.switch_cpus0.commit.commitNonSpecStalls        32044                       # The number of times commit has been forced to stall to communicate backwards
system.switch_cpus0.commit.branchMispredicts      1958293                       # The number of times a branch was mispredicted
system.switch_cpus0.commit.committed_per_cycle::samples    136248183                       # Number of insts commited each cycle
system.switch_cpus0.commit.committed_per_cycle::mean     0.898521                       # Number of insts commited each cycle
system.switch_cpus0.commit.committed_per_cycle::stdev     1.713786                       # Number of insts commited each cycle
system.switch_cpus0.commit.committed_per_cycle::underflows            0      0.00%      0.00% # Number of insts commited each cycle
system.switch_cpus0.commit.committed_per_cycle::0     87148455     63.96%     63.96% # Number of insts commited each cycle
system.switch_cpus0.commit.committed_per_cycle::1     22504097     16.52%     80.48% # Number of insts commited each cycle
system.switch_cpus0.commit.committed_per_cycle::2     10813130      7.94%     88.42% # Number of insts commited each cycle
system.switch_cpus0.commit.committed_per_cycle::3      4818437      3.54%     91.95% # Number of insts commited each cycle
system.switch_cpus0.commit.committed_per_cycle::4      3762754      2.76%     94.71% # Number of insts commited each cycle
system.switch_cpus0.commit.committed_per_cycle::5      1535988      1.13%     95.84% # Number of insts commited each cycle
system.switch_cpus0.commit.committed_per_cycle::6      1560148      1.15%     96.99% # Number of insts commited each cycle
system.switch_cpus0.commit.committed_per_cycle::7      1096988      0.81%     97.79% # Number of insts commited each cycle
system.switch_cpus0.commit.committed_per_cycle::8      3008186      2.21%    100.00% # Number of insts commited each cycle
system.switch_cpus0.commit.committed_per_cycle::overflows            0      0.00%    100.00% # Number of insts commited each cycle
system.switch_cpus0.commit.committed_per_cycle::min_value            0                       # Number of insts commited each cycle
system.switch_cpus0.commit.committed_per_cycle::max_value            8                       # Number of insts commited each cycle
system.switch_cpus0.commit.committed_per_cycle::total    136248183                       # Number of insts commited each cycle
system.switch_cpus0.commit.committedInsts    100000000                       # Number of instructions committed
system.switch_cpus0.commit.committedOps     122421916                       # Number of ops (including micro ops) committed
system.switch_cpus0.commit.swp_count                0                       # Number of s/w prefetches committed
system.switch_cpus0.commit.refs              19953796                       # Number of memory references committed
system.switch_cpus0.commit.loads             12212126                       # Number of loads committed
system.switch_cpus0.commit.membars              16022                       # Number of memory barriers committed
system.switch_cpus0.commit.branches          17573934                       # Number of branches committed
system.switch_cpus0.commit.fp_insts                 0                       # Number of committed floating point instructions.
system.switch_cpus0.commit.int_insts        110146122                       # Number of committed integer instructions.
system.switch_cpus0.commit.function_calls      2413416                       # Number of function calls committed.
system.switch_cpus0.commit.bw_lim_events      3008186                       # number cycles where commit BW limit reached
system.switch_cpus0.commit.bw_limited               0                       # number of insts not committed due to BW limits
system.switch_cpus0.rob.rob_reads           282439613                       # The number of ROB reads
system.switch_cpus0.rob.rob_writes          302693988                       # The number of ROB writes
system.switch_cpus0.timesIdled                  54568                       # Number of times that the entire CPU went into an idle state and unscheduled itself
system.switch_cpus0.idleCycles                2085467                       # Total number of cycles that the CPU has spent unscheduled due to idling
system.switch_cpus0.committedInsts          100000000                       # Number of Instructions Simulated
system.switch_cpus0.committedOps            122421916                       # Number of Ops (including micro ops) Simulated
system.switch_cpus0.committedInsts_total    100000000                       # Number of Instructions Simulated
system.switch_cpus0.cpi                      1.426281                       # CPI: Cycles Per Instruction
system.switch_cpus0.cpi_total                1.426281                       # CPI: Total CPI of All Threads
system.switch_cpus0.ipc                      0.701124                       # IPC: Instructions Per Cycle
system.switch_cpus0.ipc_total                0.701124                       # IPC: Total IPC of All Threads
system.switch_cpus0.int_regfile_reads       618376446                       # number of integer regfile reads
system.switch_cpus0.int_regfile_writes      186425202                       # number of integer regfile writes
system.switch_cpus0.misc_regfile_reads      145837493                       # number of misc regfile reads
system.switch_cpus0.misc_regfile_writes         32044                       # number of misc regfile writes
system.switch_cpus1.dtb.inst_hits                   0                       # ITB inst hits
system.switch_cpus1.dtb.inst_misses                 0                       # ITB inst misses
system.switch_cpus1.dtb.read_hits                   0                       # DTB read hits
system.switch_cpus1.dtb.read_misses                 0                       # DTB read misses
system.switch_cpus1.dtb.write_hits                  0                       # DTB write hits
system.switch_cpus1.dtb.write_misses                0                       # DTB write misses
system.switch_cpus1.dtb.flush_tlb                   0                       # Number of times complete TLB was flushed
system.switch_cpus1.dtb.flush_tlb_mva               0                       # Number of times TLB was flushed by MVA
system.switch_cpus1.dtb.flush_tlb_mva_asid            0                       # Number of times TLB was flushed by MVA & ASID
system.switch_cpus1.dtb.flush_tlb_asid              0                       # Number of times TLB was flushed by ASID
system.switch_cpus1.dtb.flush_entries               0                       # Number of entries that have been flushed from TLB
system.switch_cpus1.dtb.align_faults                0                       # Number of TLB faults due to alignment restrictions
system.switch_cpus1.dtb.prefetch_faults             0                       # Number of TLB faults due to prefetch
system.switch_cpus1.dtb.domain_faults               0                       # Number of TLB faults due to domain restrictions
system.switch_cpus1.dtb.perms_faults                0                       # Number of TLB faults due to permissions restrictions
system.switch_cpus1.dtb.read_accesses               0                       # DTB read accesses
system.switch_cpus1.dtb.write_accesses              0                       # DTB write accesses
system.switch_cpus1.dtb.inst_accesses               0                       # ITB inst accesses
system.switch_cpus1.dtb.hits                        0                       # DTB hits
system.switch_cpus1.dtb.misses                      0                       # DTB misses
system.switch_cpus1.dtb.accesses                    0                       # DTB accesses
system.switch_cpus1.itb.inst_hits                   0                       # ITB inst hits
system.switch_cpus1.itb.inst_misses                 0                       # ITB inst misses
system.switch_cpus1.itb.read_hits                   0                       # DTB read hits
system.switch_cpus1.itb.read_misses                 0                       # DTB read misses
system.switch_cpus1.itb.write_hits                  0                       # DTB write hits
system.switch_cpus1.itb.write_misses                0                       # DTB write misses
system.switch_cpus1.itb.flush_tlb                   0                       # Number of times complete TLB was flushed
system.switch_cpus1.itb.flush_tlb_mva               0                       # Number of times TLB was flushed by MVA
system.switch_cpus1.itb.flush_tlb_mva_asid            0                       # Number of times TLB was flushed by MVA & ASID
system.switch_cpus1.itb.flush_tlb_asid              0                       # Number of times TLB was flushed by ASID
system.switch_cpus1.itb.flush_entries               0                       # Number of entries that have been flushed from TLB
system.switch_cpus1.itb.align_faults                0                       # Number of TLB faults due to alignment restrictions
system.switch_cpus1.itb.prefetch_faults             0                       # Number of TLB faults due to prefetch
system.switch_cpus1.itb.domain_faults               0                       # Number of TLB faults due to domain restrictions
system.switch_cpus1.itb.perms_faults                0                       # Number of TLB faults due to permissions restrictions
system.switch_cpus1.itb.read_accesses               0                       # DTB read accesses
system.switch_cpus1.itb.write_accesses              0                       # DTB write accesses
system.switch_cpus1.itb.inst_accesses               0                       # ITB inst accesses
system.switch_cpus1.itb.hits                        0                       # DTB hits
system.switch_cpus1.itb.misses                      0                       # DTB misses
system.switch_cpus1.itb.accesses                    0                       # DTB accesses
system.cpu1.workload.num_syscalls                   0                       # Number of system calls
system.switch_cpus1.numCycles               142628102                       # number of cpu cycles simulated
system.switch_cpus1.numWorkItemsStarted             0                       # number of work items this cpu started
system.switch_cpus1.numWorkItemsCompleted            0                       # number of work items this cpu completed
system.switch_cpus1.BPredUnit.lookups        23977232                       # Number of BP lookups
system.switch_cpus1.BPredUnit.condPredicted     19444157                       # Number of conditional branches predicted
system.switch_cpus1.BPredUnit.condIncorrect      2047941                       # Number of conditional branches incorrect
system.switch_cpus1.BPredUnit.BTBLookups      9802741                       # Number of BTB lookups
system.switch_cpus1.BPredUnit.BTBHits         9226569                       # Number of BTB hits
system.switch_cpus1.BPredUnit.BTBCorrect            0                       # Number of correct BTB predictions (this stat may not work properly.
system.switch_cpus1.BPredUnit.usedRAS         2579069                       # Number of times the RAS was used to get a target.
system.switch_cpus1.BPredUnit.RASInCorrect        95104                       # Number of incorrect RAS predictions.
system.switch_cpus1.fetch.icacheStallCycles    104746059                       # Number of cycles fetch is stalled on an Icache miss
system.switch_cpus1.fetch.Insts             131110665                       # Number of instructions fetch has processed
system.switch_cpus1.fetch.Branches           23977232                       # Number of branches that fetch encountered
system.switch_cpus1.fetch.predictedBranches     11805638                       # Number of branches that fetch has predicted taken
system.switch_cpus1.fetch.Cycles             28854445                       # Number of cycles fetch has run and was not squashing or blocked
system.switch_cpus1.fetch.SquashCycles        6665739                       # Number of cycles fetch has spent squashing
system.switch_cpus1.fetch.BlockedCycles       2602107                       # Number of cycles fetch has spent blocked
system.switch_cpus1.fetch.CacheLines         12235862                       # Number of cache lines fetched
system.switch_cpus1.fetch.IcacheSquashes      1608653                       # Number of outstanding Icache misses that were squashed
system.switch_cpus1.fetch.rateDist::samples    140794278                       # Number of instructions fetched each cycle (Total)
system.switch_cpus1.fetch.rateDist::mean     1.139739                       # Number of instructions fetched each cycle (Total)
system.switch_cpus1.fetch.rateDist::stdev     2.543679                       # Number of instructions fetched each cycle (Total)
system.switch_cpus1.fetch.rateDist::underflows            0      0.00%      0.00% # Number of instructions fetched each cycle (Total)
system.switch_cpus1.fetch.rateDist::0       111939833     79.51%     79.51% # Number of instructions fetched each cycle (Total)
system.switch_cpus1.fetch.rateDist::1         2030165      1.44%     80.95% # Number of instructions fetched each cycle (Total)
system.switch_cpus1.fetch.rateDist::2         3720726      2.64%     83.59% # Number of instructions fetched each cycle (Total)
system.switch_cpus1.fetch.rateDist::3         3372078      2.40%     85.99% # Number of instructions fetched each cycle (Total)
system.switch_cpus1.fetch.rateDist::4         2147234      1.53%     87.51% # Number of instructions fetched each cycle (Total)
system.switch_cpus1.fetch.rateDist::5         1758861      1.25%     88.76% # Number of instructions fetched each cycle (Total)
system.switch_cpus1.fetch.rateDist::6         1020663      0.72%     89.48% # Number of instructions fetched each cycle (Total)
system.switch_cpus1.fetch.rateDist::7         1064035      0.76%     90.24% # Number of instructions fetched each cycle (Total)
system.switch_cpus1.fetch.rateDist::8        13740683      9.76%    100.00% # Number of instructions fetched each cycle (Total)
system.switch_cpus1.fetch.rateDist::overflows            0      0.00%    100.00% # Number of instructions fetched each cycle (Total)
system.switch_cpus1.fetch.rateDist::min_value            0                       # Number of instructions fetched each cycle (Total)
system.switch_cpus1.fetch.rateDist::max_value            8                       # Number of instructions fetched each cycle (Total)
system.switch_cpus1.fetch.rateDist::total    140794278                       # Number of instructions fetched each cycle (Total)
system.switch_cpus1.fetch.branchRate         0.168110                       # Number of branch fetches per cycle
system.switch_cpus1.fetch.rate               0.919248                       # Number of inst fetches per cycle
system.switch_cpus1.decode.IdleCycles       103685052                       # Number of cycles decode is idle
system.switch_cpus1.decode.BlockedCycles      3990328                       # Number of cycles decode is blocked
system.switch_cpus1.decode.RunCycles         28481945                       # Number of cycles decode is running
system.switch_cpus1.decode.UnblockCycles        48278                       # Number of cycles decode is unblocking
system.switch_cpus1.decode.SquashCycles       4588669                       # Number of cycles decode is squashing
system.switch_cpus1.decode.BranchResolved      4147129                       # Number of times decode resolved a branch
system.switch_cpus1.decode.BranchMispred         3002                       # Number of times decode detected a branch misprediction
system.switch_cpus1.decode.DecodedInsts     158643539                       # Number of instructions handled by decode
system.switch_cpus1.decode.SquashedInsts        23471                       # Number of squashed instructions handled by decode
system.switch_cpus1.rename.SquashCycles       4588669                       # Number of cycles rename is squashing
system.switch_cpus1.rename.IdleCycles       104521914                       # Number of cycles rename is idle
system.switch_cpus1.rename.BlockCycles        1086777                       # Number of cycles rename is blocking
system.switch_cpus1.rename.serializeStallCycles      1717961                       # count of cycles rename stalled for serializing inst
system.switch_cpus1.rename.RunCycles         27674587                       # Number of cycles rename is running
system.switch_cpus1.rename.UnblockCycles      1204364                       # Number of cycles rename is unblocking
system.switch_cpus1.rename.RenamedInsts     156874070                       # Number of instructions processed by rename
system.switch_cpus1.rename.ROBFullEvents           15                       # Number of times rename has blocked due to ROB full
system.switch_cpus1.rename.IQFullEvents        229004                       # Number of times rename has blocked due to IQ full
system.switch_cpus1.rename.LSQFullEvents       520039                       # Number of times rename has blocked due to LSQ full
system.switch_cpus1.rename.RenamedOperands    221898208                       # Number of destination operands rename has renamed
system.switch_cpus1.rename.RenameLookups    730484553                       # Number of register rename lookups that rename has made
system.switch_cpus1.rename.int_rename_lookups    730484553                       # Number of integer rename lookups
system.switch_cpus1.rename.CommittedMaps    175687169                       # Number of HB maps that are committed
system.switch_cpus1.rename.UndoneMaps        46210979                       # Number of HB maps that are undone due to squashing
system.switch_cpus1.rename.serializingInsts        34599                       # count of serializing insts renamed
system.switch_cpus1.rename.tempSerializingInsts        17300                       # count of temporary serializing insts renamed
system.switch_cpus1.rename.skidInsts          4327532                       # count of insts added to the skid buffer
system.switch_cpus1.memDep0.insertedLoads     14867647                       # Number of loads inserted to the mem dependence unit.
system.switch_cpus1.memDep0.insertedStores      7380915                       # Number of stores inserted to the mem dependence unit.
system.switch_cpus1.memDep0.conflictingLoads        83798                       # Number of conflicting loads.
system.switch_cpus1.memDep0.conflictingStores      1653942                       # Number of conflicting stores.
system.switch_cpus1.iq.iqInstsAdded         153899679                       # Number of instructions added to the IQ (excludes non-spec)
system.switch_cpus1.iq.iqNonSpecInstsAdded        34600                       # Number of non-speculative instructions added to the IQ
system.switch_cpus1.iq.iqInstsIssued        143031689                       # Number of instructions issued
system.switch_cpus1.iq.iqSquashedInstsIssued       161098                       # Number of squashed instructions issued
system.switch_cpus1.iq.iqSquashedInstsExamined     26962860                       # Number of squashed instructions iterated over during squash; mainly for profiling
system.switch_cpus1.iq.iqSquashedOperandsExamined     59145051                       # Number of squashed operands that are examined and possibly removed from graph
system.switch_cpus1.iq.issued_per_cycle::samples    140794278                       # Number of insts issued each cycle
system.switch_cpus1.iq.issued_per_cycle::mean     1.015891                       # Number of insts issued each cycle
system.switch_cpus1.iq.issued_per_cycle::stdev     1.560810                       # Number of insts issued each cycle
system.switch_cpus1.iq.issued_per_cycle::underflows            0      0.00%      0.00% # Number of insts issued each cycle
system.switch_cpus1.iq.issued_per_cycle::0     80880514     57.45%     57.45% # Number of insts issued each cycle
system.switch_cpus1.iq.issued_per_cycle::1     24658484     17.51%     74.96% # Number of insts issued each cycle
system.switch_cpus1.iq.issued_per_cycle::2     12967066      9.21%     84.17% # Number of insts issued each cycle
system.switch_cpus1.iq.issued_per_cycle::3      7492871      5.32%     89.49% # Number of insts issued each cycle
system.switch_cpus1.iq.issued_per_cycle::4      8294245      5.89%     95.38% # Number of insts issued each cycle
system.switch_cpus1.iq.issued_per_cycle::5      3078500      2.19%     97.57% # Number of insts issued each cycle
system.switch_cpus1.iq.issued_per_cycle::6      2732709      1.94%     99.51% # Number of insts issued each cycle
system.switch_cpus1.iq.issued_per_cycle::7       524386      0.37%     99.88% # Number of insts issued each cycle
system.switch_cpus1.iq.issued_per_cycle::8       165503      0.12%    100.00% # Number of insts issued each cycle
system.switch_cpus1.iq.issued_per_cycle::overflows            0      0.00%    100.00% # Number of insts issued each cycle
system.switch_cpus1.iq.issued_per_cycle::min_value            0                       # Number of insts issued each cycle
system.switch_cpus1.iq.issued_per_cycle::max_value            8                       # Number of insts issued each cycle
system.switch_cpus1.iq.issued_per_cycle::total    140794278                       # Number of insts issued each cycle
system.switch_cpus1.iq.fu_full::No_OpClass            0      0.00%      0.00% # attempts to use FU when none available
system.switch_cpus1.iq.fu_full::IntAlu         572278     68.86%     68.86% # attempts to use FU when none available
system.switch_cpus1.iq.fu_full::IntMult             0      0.00%     68.86% # attempts to use FU when none available
system.switch_cpus1.iq.fu_full::IntDiv              0      0.00%     68.86% # attempts to use FU when none available
system.switch_cpus1.iq.fu_full::FloatAdd            0      0.00%     68.86% # attempts to use FU when none available
system.switch_cpus1.iq.fu_full::FloatCmp            0      0.00%     68.86% # attempts to use FU when none available
system.switch_cpus1.iq.fu_full::FloatCvt            0      0.00%     68.86% # attempts to use FU when none available
system.switch_cpus1.iq.fu_full::FloatMult            0      0.00%     68.86% # attempts to use FU when none available
system.switch_cpus1.iq.fu_full::FloatDiv            0      0.00%     68.86% # attempts to use FU when none available
system.switch_cpus1.iq.fu_full::FloatSqrt            0      0.00%     68.86% # attempts to use FU when none available
system.switch_cpus1.iq.fu_full::SimdAdd             0      0.00%     68.86% # attempts to use FU when none available
system.switch_cpus1.iq.fu_full::SimdAddAcc            0      0.00%     68.86% # attempts to use FU when none available
system.switch_cpus1.iq.fu_full::SimdAlu             0      0.00%     68.86% # attempts to use FU when none available
system.switch_cpus1.iq.fu_full::SimdCmp             0      0.00%     68.86% # attempts to use FU when none available
system.switch_cpus1.iq.fu_full::SimdCvt             0      0.00%     68.86% # attempts to use FU when none available
system.switch_cpus1.iq.fu_full::SimdMisc            0      0.00%     68.86% # attempts to use FU when none available
system.switch_cpus1.iq.fu_full::SimdMult            0      0.00%     68.86% # attempts to use FU when none available
system.switch_cpus1.iq.fu_full::SimdMultAcc            0      0.00%     68.86% # attempts to use FU when none available
system.switch_cpus1.iq.fu_full::SimdShift            0      0.00%     68.86% # attempts to use FU when none available
system.switch_cpus1.iq.fu_full::SimdShiftAcc            0      0.00%     68.86% # attempts to use FU when none available
system.switch_cpus1.iq.fu_full::SimdSqrt            0      0.00%     68.86% # attempts to use FU when none available
system.switch_cpus1.iq.fu_full::SimdFloatAdd            0      0.00%     68.86% # attempts to use FU when none available
system.switch_cpus1.iq.fu_full::SimdFloatAlu            0      0.00%     68.86% # attempts to use FU when none available
system.switch_cpus1.iq.fu_full::SimdFloatCmp            0      0.00%     68.86% # attempts to use FU when none available
system.switch_cpus1.iq.fu_full::SimdFloatCvt            0      0.00%     68.86% # attempts to use FU when none available
system.switch_cpus1.iq.fu_full::SimdFloatDiv            0      0.00%     68.86% # attempts to use FU when none available
system.switch_cpus1.iq.fu_full::SimdFloatMisc            0      0.00%     68.86% # attempts to use FU when none available
system.switch_cpus1.iq.fu_full::SimdFloatMult            0      0.00%     68.86% # attempts to use FU when none available
system.switch_cpus1.iq.fu_full::SimdFloatMultAcc            0      0.00%     68.86% # attempts to use FU when none available
system.switch_cpus1.iq.fu_full::SimdFloatSqrt            0      0.00%     68.86% # attempts to use FU when none available
system.switch_cpus1.iq.fu_full::MemRead        117669     14.16%     83.02% # attempts to use FU when none available
system.switch_cpus1.iq.fu_full::MemWrite       141104     16.98%    100.00% # attempts to use FU when none available
system.switch_cpus1.iq.fu_full::IprAccess            0      0.00%    100.00% # attempts to use FU when none available
system.switch_cpus1.iq.fu_full::InstPrefetch            0      0.00%    100.00% # attempts to use FU when none available
system.switch_cpus1.iq.FU_type_0::No_OpClass            0      0.00%      0.00% # Type of FU issued
system.switch_cpus1.iq.FU_type_0::IntAlu    120447043     84.21%     84.21% # Type of FU issued
system.switch_cpus1.iq.FU_type_0::IntMult      2024022      1.42%     85.63% # Type of FU issued
system.switch_cpus1.iq.FU_type_0::IntDiv            0      0.00%     85.63% # Type of FU issued
system.switch_cpus1.iq.FU_type_0::FloatAdd            0      0.00%     85.63% # Type of FU issued
system.switch_cpus1.iq.FU_type_0::FloatCmp            0      0.00%     85.63% # Type of FU issued
system.switch_cpus1.iq.FU_type_0::FloatCvt            0      0.00%     85.63% # Type of FU issued
system.switch_cpus1.iq.FU_type_0::FloatMult            0      0.00%     85.63% # Type of FU issued
system.switch_cpus1.iq.FU_type_0::FloatDiv            0      0.00%     85.63% # Type of FU issued
system.switch_cpus1.iq.FU_type_0::FloatSqrt            0      0.00%     85.63% # Type of FU issued
system.switch_cpus1.iq.FU_type_0::SimdAdd            0      0.00%     85.63% # Type of FU issued
system.switch_cpus1.iq.FU_type_0::SimdAddAcc            0      0.00%     85.63% # Type of FU issued
system.switch_cpus1.iq.FU_type_0::SimdAlu            0      0.00%     85.63% # Type of FU issued
system.switch_cpus1.iq.FU_type_0::SimdCmp            0      0.00%     85.63% # Type of FU issued
system.switch_cpus1.iq.FU_type_0::SimdCvt            0      0.00%     85.63% # Type of FU issued
system.switch_cpus1.iq.FU_type_0::SimdMisc            0      0.00%     85.63% # Type of FU issued
system.switch_cpus1.iq.FU_type_0::SimdMult            0      0.00%     85.63% # Type of FU issued
system.switch_cpus1.iq.FU_type_0::SimdMultAcc            0      0.00%     85.63% # Type of FU issued
system.switch_cpus1.iq.FU_type_0::SimdShift            0      0.00%     85.63% # Type of FU issued
system.switch_cpus1.iq.FU_type_0::SimdShiftAcc            0      0.00%     85.63% # Type of FU issued
system.switch_cpus1.iq.FU_type_0::SimdSqrt            0      0.00%     85.63% # Type of FU issued
system.switch_cpus1.iq.FU_type_0::SimdFloatAdd            0      0.00%     85.63% # Type of FU issued
system.switch_cpus1.iq.FU_type_0::SimdFloatAlu            0      0.00%     85.63% # Type of FU issued
system.switch_cpus1.iq.FU_type_0::SimdFloatCmp            0      0.00%     85.63% # Type of FU issued
system.switch_cpus1.iq.FU_type_0::SimdFloatCvt            0      0.00%     85.63% # Type of FU issued
system.switch_cpus1.iq.FU_type_0::SimdFloatDiv            0      0.00%     85.63% # Type of FU issued
system.switch_cpus1.iq.FU_type_0::SimdFloatMisc        17299      0.01%     85.64% # Type of FU issued
system.switch_cpus1.iq.FU_type_0::SimdFloatMult            0      0.00%     85.64% # Type of FU issued
system.switch_cpus1.iq.FU_type_0::SimdFloatMultAcc            0      0.00%     85.64% # Type of FU issued
system.switch_cpus1.iq.FU_type_0::SimdFloatSqrt            0      0.00%     85.64% # Type of FU issued
system.switch_cpus1.iq.FU_type_0::MemRead     13200574      9.23%     94.87% # Type of FU issued
system.switch_cpus1.iq.FU_type_0::MemWrite      7342751      5.13%    100.00% # Type of FU issued
system.switch_cpus1.iq.FU_type_0::IprAccess            0      0.00%    100.00% # Type of FU issued
system.switch_cpus1.iq.FU_type_0::InstPrefetch            0      0.00%    100.00% # Type of FU issued
system.switch_cpus1.iq.FU_type_0::total     143031689                       # Type of FU issued
system.switch_cpus1.iq.rate                  1.002830                       # Inst issue rate
system.switch_cpus1.iq.fu_busy_cnt             831051                       # FU busy when requested
system.switch_cpus1.iq.fu_busy_rate          0.005810                       # FU busy rate (busy events/executed inst)
system.switch_cpus1.iq.int_inst_queue_reads    427849799                       # Number of integer instruction queue reads
system.switch_cpus1.iq.int_inst_queue_writes    180897353                       # Number of integer instruction queue writes
system.switch_cpus1.iq.int_inst_queue_wakeup_accesses    139889432                       # Number of integer instruction queue wakeup accesses
system.switch_cpus1.iq.fp_inst_queue_reads            0                       # Number of floating instruction queue reads
system.switch_cpus1.iq.fp_inst_queue_writes            0                       # Number of floating instruction queue writes
system.switch_cpus1.iq.fp_inst_queue_wakeup_accesses            0                       # Number of floating instruction queue wakeup accesses
system.switch_cpus1.iq.int_alu_accesses     143862740                       # Number of integer alu accesses
system.switch_cpus1.iq.fp_alu_accesses              0                       # Number of floating point alu accesses
system.switch_cpus1.iew.lsq.thread0.forwLoads       276649                       # Number of loads that had data forwarded from stores
system.switch_cpus1.iew.lsq.thread0.invAddrLoads            0                       # Number of loads ignored due to an invalid address
system.switch_cpus1.iew.lsq.thread0.squashedLoads      3414538                       # Number of loads squashed
system.switch_cpus1.iew.lsq.thread0.ignoredResponses            9                       # Number of memory responses ignored because the instruction is squashed
system.switch_cpus1.iew.lsq.thread0.memOrderViolation          214                       # Number of memory ordering violations
system.switch_cpus1.iew.lsq.thread0.squashedStores       125415                       # Number of stores squashed
system.switch_cpus1.iew.lsq.thread0.invAddrSwpfs            0                       # Number of software prefetches ignored due to an invalid address
system.switch_cpus1.iew.lsq.thread0.blockedLoads            0                       # Number of blocked loads due to partial load-store forwarding
system.switch_cpus1.iew.lsq.thread0.rescheduledLoads            0                       # Number of loads that were rescheduled
system.switch_cpus1.iew.lsq.thread0.cacheBlocked            0                       # Number of times an access to memory failed due to the cache being blocked
system.switch_cpus1.iew.iewIdleCycles               0                       # Number of cycles IEW is idle
system.switch_cpus1.iew.iewSquashCycles       4588669                       # Number of cycles IEW is squashing
system.switch_cpus1.iew.iewBlockCycles         704177                       # Number of cycles IEW is blocking
system.switch_cpus1.iew.iewUnblockCycles       107765                       # Number of cycles IEW is unblocking
system.switch_cpus1.iew.iewDispatchedInsts    153934279                       # Number of instructions dispatched to IQ
system.switch_cpus1.iew.iewDispSquashedInsts        61725                       # Number of squashed instructions skipped by dispatch
system.switch_cpus1.iew.iewDispLoadInsts     14867647                       # Number of dispatched load instructions
system.switch_cpus1.iew.iewDispStoreInsts      7380915                       # Number of dispatched store instructions
system.switch_cpus1.iew.iewDispNonSpecInsts        17300                       # Number of dispatched non-speculative instructions
system.switch_cpus1.iew.iewIQFullEvents         93284                       # Number of times the IQ has become full, causing a stall
system.switch_cpus1.iew.iewLSQFullEvents            0                       # Number of times the LSQ has become full, causing a stall
system.switch_cpus1.iew.memOrderViolationEvents          214                       # Number of memory order violations
system.switch_cpus1.iew.predictedTakenIncorrect      1142856                       # Number of branches that were predicted taken incorrectly
system.switch_cpus1.iew.predictedNotTakenIncorrect      1144650                       # Number of branches that were predicted not taken incorrectly
system.switch_cpus1.iew.branchMispredicts      2287506                       # Number of branch mispredicts detected at execute
system.switch_cpus1.iew.iewExecutedInsts    140670587                       # Number of executed instructions
system.switch_cpus1.iew.iewExecLoadInsts     12679292                       # Number of load instructions executed
system.switch_cpus1.iew.iewExecSquashedInsts      2361096                       # Number of squashed instructions skipped in execute
system.switch_cpus1.iew.exec_swp                    0                       # number of swp insts executed
system.switch_cpus1.iew.exec_nop                    0                       # number of nop insts executed
system.switch_cpus1.iew.exec_refs            20021654                       # number of memory reference insts executed
system.switch_cpus1.iew.exec_branches        20018179                       # Number of branches executed
system.switch_cpus1.iew.exec_stores           7342362                       # Number of stores executed
system.switch_cpus1.iew.exec_rate            0.986275                       # Inst execution rate
system.switch_cpus1.iew.wb_sent             140018120                       # cumulative count of insts sent to commit
system.switch_cpus1.iew.wb_count            139889432                       # cumulative count of insts written-back
system.switch_cpus1.iew.wb_producers         81624938                       # num instructions producing a value
system.switch_cpus1.iew.wb_consumers        229237363                       # num instructions consuming a value
system.switch_cpus1.iew.wb_penalized                0                       # number of instrctions required to write to 'other' IQ
system.switch_cpus1.iew.wb_rate              0.980799                       # insts written-back per cycle
system.switch_cpus1.iew.wb_fanout            0.356072                       # average fanout of values written-back
system.switch_cpus1.iew.wb_penalized_rate            0                       # fraction of instructions written-back that wrote to 'other' IQ
system.switch_cpus1.commit.commitCommittedInsts    102319895                       # The number of committed instructions
system.switch_cpus1.commit.commitCommittedOps    125985714                       # The number of committed instructions
system.switch_cpus1.commit.commitSquashedInsts     27948933                       # The number of squashed insts skipped by commit
system.switch_cpus1.commit.commitNonSpecStalls        34600                       # The number of times commit has been forced to stall to communicate backwards
system.switch_cpus1.commit.branchMispredicts      2070893                       # The number of times a branch was mispredicted
system.switch_cpus1.commit.committed_per_cycle::samples    136205609                       # Number of insts commited each cycle
system.switch_cpus1.commit.committed_per_cycle::mean     0.924967                       # Number of insts commited each cycle
system.switch_cpus1.commit.committed_per_cycle::stdev     1.694731                       # Number of insts commited each cycle
[...]
system.cpu3.icache.ReadReq_avg_miss_latency::total 314132.411765                       # average ReadReq miss latency
system.cpu3.icache.demand_avg_miss_latency::switch_cpus3.inst 314132.411765                       # average overall miss latency
system.cpu3.icache.demand_avg_miss_latency::total 314132.411765                       # average overall miss latency
system.cpu3.icache.overall_avg_miss_latency::switch_cpus3.inst 314132.411765                       # average overall miss latency
system.cpu3.icache.overall_avg_miss_latency::total 314132.411765                       # average overall miss latency
system.cpu3.icache.blocked_cycles::no_mshrs            0                       # number of cycles access was blocked
system.cpu3.icache.blocked_cycles::no_targets            0                       # number of cycles access was blocked
system.cpu3.icache.blocked::no_mshrs                0                       # number of cycles access was blocked
system.cpu3.icache.blocked::no_targets              0                       # number of cycles access was blocked
system.cpu3.icache.avg_blocked_cycles::no_mshrs          nan                       # average number of cycles each access was blocked
system.cpu3.icache.avg_blocked_cycles::no_targets          nan                       # average number of cycles each access was blocked
system.cpu3.icache.fast_writes                      0                       # number of fast writes performed
system.cpu3.icache.cache_copies                     0                       # number of cache copies performed
system.cpu3.icache.ReadReq_mshr_hits::switch_cpus3.inst            3                       # number of ReadReq MSHR hits
system.cpu3.icache.ReadReq_mshr_hits::total            3                       # number of ReadReq MSHR hits
system.cpu3.icache.demand_mshr_hits::switch_cpus3.inst            3                       # number of demand (read+write) MSHR hits
system.cpu3.icache.demand_mshr_hits::total            3                       # number of demand (read+write) MSHR hits
system.cpu3.icache.overall_mshr_hits::switch_cpus3.inst            3                       # number of overall MSHR hits
system.cpu3.icache.overall_mshr_hits::total            3                       # number of overall MSHR hits
system.cpu3.icache.ReadReq_mshr_misses::switch_cpus3.inst           14                       # number of ReadReq MSHR misses
system.cpu3.icache.ReadReq_mshr_misses::total           14                       # number of ReadReq MSHR misses
system.cpu3.icache.demand_mshr_misses::switch_cpus3.inst           14                       # number of demand (read+write) MSHR misses
system.cpu3.icache.demand_mshr_misses::total           14                       # number of demand (read+write) MSHR misses
system.cpu3.icache.overall_mshr_misses::switch_cpus3.inst           14                       # number of overall MSHR misses
system.cpu3.icache.overall_mshr_misses::total           14                       # number of overall MSHR misses
system.cpu3.icache.ReadReq_mshr_miss_latency::switch_cpus3.inst      4594178                       # number of ReadReq MSHR miss cycles
system.cpu3.icache.ReadReq_mshr_miss_latency::total      4594178                       # number of ReadReq MSHR miss cycles
system.cpu3.icache.demand_mshr_miss_latency::switch_cpus3.inst      4594178                       # number of demand (read+write) MSHR miss cycles
system.cpu3.icache.demand_mshr_miss_latency::total      4594178                       # number of demand (read+write) MSHR miss cycles
system.cpu3.icache.overall_mshr_miss_latency::switch_cpus3.inst      4594178                       # number of overall MSHR miss cycles
system.cpu3.icache.overall_mshr_miss_latency::total      4594178                       # number of overall MSHR miss cycles
system.cpu3.icache.ReadReq_mshr_miss_rate::switch_cpus3.inst     0.000001                       # mshr miss rate for ReadReq accesses
system.cpu3.icache.ReadReq_mshr_miss_rate::total     0.000001                       # mshr miss rate for ReadReq accesses
system.cpu3.icache.demand_mshr_miss_rate::switch_cpus3.inst     0.000001                       # mshr miss rate for demand accesses
system.cpu3.icache.demand_mshr_miss_rate::total     0.000001                       # mshr miss rate for demand accesses
system.cpu3.icache.overall_mshr_miss_rate::switch_cpus3.inst     0.000001                       # mshr miss rate for overall accesses
system.cpu3.icache.overall_mshr_miss_rate::total     0.000001                       # mshr miss rate for overall accesses
system.cpu3.icache.ReadReq_avg_mshr_miss_latency::switch_cpus3.inst 328155.571429                       # average ReadReq mshr miss latency
system.cpu3.icache.ReadReq_avg_mshr_miss_latency::total 328155.571429                       # average ReadReq mshr miss latency
system.cpu3.icache.demand_avg_mshr_miss_latency::switch_cpus3.inst 328155.571429                       # average overall mshr miss latency
system.cpu3.icache.demand_avg_mshr_miss_latency::total 328155.571429                       # average overall mshr miss latency
system.cpu3.icache.overall_avg_mshr_miss_latency::switch_cpus3.inst 328155.571429                       # average overall mshr miss latency
system.cpu3.icache.overall_avg_mshr_miss_latency::total 328155.571429                       # average overall mshr miss latency
system.cpu3.icache.no_allocate_misses               0                       # Number of misses that were no-allocate
system.cpu3.dcache.replacements                 51080                       # number of replacements
system.cpu3.dcache.tagsinuse                      256                       # Cycle average of tags in use
system.cpu3.dcache.total_refs               172436152                       # Total number of references to valid blocks.
system.cpu3.dcache.sampled_refs                 51336                       # Sample count of references to valid blocks.
system.cpu3.dcache.avg_refs               3358.971326                       # Average number of references to valid blocks.
system.cpu3.dcache.warmup_cycle                     0                       # Cycle when the warmup percentage was hit.
system.cpu3.dcache.occ_blocks::switch_cpus3.data   233.207292                       # Average occupied blocks per requestor
system.cpu3.dcache.occ_blocks::cpu3.data    22.792708                       # Average occupied blocks per requestor
system.cpu3.dcache.occ_percent::switch_cpus3.data     0.910966                       # Average percentage of cache occupancy
system.cpu3.dcache.occ_percent::cpu3.data     0.089034                       # Average percentage of cache occupancy
system.cpu3.dcache.occ_percent::total               1                       # Average percentage of cache occupancy
system.cpu3.dcache.ReadReq_hits::switch_cpus3.data      8917381                       # number of ReadReq hits
system.cpu3.dcache.ReadReq_hits::total        8917381                       # number of ReadReq hits
system.cpu3.dcache.WriteReq_hits::switch_cpus3.data      7016194                       # number of WriteReq hits
system.cpu3.dcache.WriteReq_hits::total       7016194                       # number of WriteReq hits
system.cpu3.dcache.LoadLockedReq_hits::switch_cpus3.data        17138                       # number of LoadLockedReq hits
system.cpu3.dcache.LoadLockedReq_hits::total        17138                       # number of LoadLockedReq hits
system.cpu3.dcache.StoreCondReq_hits::switch_cpus3.data        16278                       # number of StoreCondReq hits
system.cpu3.dcache.StoreCondReq_hits::total        16278                       # number of StoreCondReq hits
system.cpu3.dcache.demand_hits::switch_cpus3.data     15933575                       # number of demand (read+write) hits
system.cpu3.dcache.demand_hits::total        15933575                       # number of demand (read+write) hits
system.cpu3.dcache.overall_hits::switch_cpus3.data     15933575                       # number of overall hits
system.cpu3.dcache.overall_hits::total       15933575                       # number of overall hits
system.cpu3.dcache.ReadReq_misses::switch_cpus3.data       148273                       # number of ReadReq misses
system.cpu3.dcache.ReadReq_misses::total       148273                       # number of ReadReq misses
system.cpu3.dcache.WriteReq_misses::switch_cpus3.data         3757                       # number of WriteReq misses
system.cpu3.dcache.WriteReq_misses::total         3757                       # number of WriteReq misses
system.cpu3.dcache.demand_misses::switch_cpus3.data       152030                       # number of demand (read+write) misses
system.cpu3.dcache.demand_misses::total        152030                       # number of demand (read+write) misses
system.cpu3.dcache.overall_misses::switch_cpus3.data       152030                       # number of overall misses
system.cpu3.dcache.overall_misses::total       152030                       # number of overall misses
system.cpu3.dcache.ReadReq_miss_latency::switch_cpus3.data  14172378576                       # number of ReadReq miss cycles
system.cpu3.dcache.ReadReq_miss_latency::total  14172378576                       # number of ReadReq miss cycles
system.cpu3.dcache.WriteReq_miss_latency::switch_cpus3.data    914640470                       # number of WriteReq miss cycles
system.cpu3.dcache.WriteReq_miss_latency::total    914640470                       # number of WriteReq miss cycles
system.cpu3.dcache.demand_miss_latency::switch_cpus3.data  15087019046                       # number of demand (read+write) miss cycles
system.cpu3.dcache.demand_miss_latency::total  15087019046                       # number of demand (read+write) miss cycles
system.cpu3.dcache.overall_miss_latency::switch_cpus3.data  15087019046                       # number of overall miss cycles
system.cpu3.dcache.overall_miss_latency::total  15087019046                       # number of overall miss cycles
system.cpu3.dcache.ReadReq_accesses::switch_cpus3.data      9065654                       # number of ReadReq accesses(hits+misses)
system.cpu3.dcache.ReadReq_accesses::total      9065654                       # number of ReadReq accesses(hits+misses)
system.cpu3.dcache.WriteReq_accesses::switch_cpus3.data      7019951                       # number of WriteReq accesses(hits+misses)
system.cpu3.dcache.WriteReq_accesses::total      7019951                       # number of WriteReq accesses(hits+misses)
system.cpu3.dcache.LoadLockedReq_accesses::switch_cpus3.data        17138                       # number of LoadLockedReq accesses(hits+misses)
system.cpu3.dcache.LoadLockedReq_accesses::total        17138                       # number of LoadLockedReq accesses(hits+misses)
system.cpu3.dcache.StoreCondReq_accesses::switch_cpus3.data        16278                       # number of StoreCondReq accesses(hits+misses)
system.cpu3.dcache.StoreCondReq_accesses::total        16278                       # number of StoreCondReq accesses(hits+misses)
system.cpu3.dcache.demand_accesses::switch_cpus3.data     16085605                       # number of demand (read+write) accesses
system.cpu3.dcache.demand_accesses::total     16085605                       # number of demand (read+write) accesses
system.cpu3.dcache.overall_accesses::switch_cpus3.data     16085605                       # number of overall (read+write) accesses
system.cpu3.dcache.overall_accesses::total     16085605                       # number of overall (read+write) accesses
system.cpu3.dcache.ReadReq_miss_rate::switch_cpus3.data     0.016355                       # miss rate for ReadReq accesses
system.cpu3.dcache.ReadReq_miss_rate::total     0.016355                       # miss rate for ReadReq accesses
system.cpu3.dcache.WriteReq_miss_rate::switch_cpus3.data     0.000535                       # miss rate for WriteReq accesses
system.cpu3.dcache.WriteReq_miss_rate::total     0.000535                       # miss rate for WriteReq accesses
system.cpu3.dcache.demand_miss_rate::switch_cpus3.data     0.009451                       # miss rate for demand accesses
system.cpu3.dcache.demand_miss_rate::total     0.009451                       # miss rate for demand accesses
system.cpu3.dcache.overall_miss_rate::switch_cpus3.data     0.009451                       # miss rate for overall accesses
system.cpu3.dcache.overall_miss_rate::total     0.009451                       # miss rate for overall accesses
system.cpu3.dcache.ReadReq_avg_miss_latency::switch_cpus3.data 95583.002812                       # average ReadReq miss latency
system.cpu3.dcache.ReadReq_avg_miss_latency::total 95583.002812                       # average ReadReq miss latency
system.cpu3.dcache.WriteReq_avg_miss_latency::switch_cpus3.data 243449.685920                       # average WriteReq miss latency
system.cpu3.dcache.WriteReq_avg_miss_latency::total 243449.685920                       # average WriteReq miss latency
system.cpu3.dcache.demand_avg_miss_latency::switch_cpus3.data 99237.117977                       # average overall miss latency
system.cpu3.dcache.demand_avg_miss_latency::total 99237.117977                       # average overall miss latency
system.cpu3.dcache.overall_avg_miss_latency::switch_cpus3.data 99237.117977                       # average overall miss latency
system.cpu3.dcache.overall_avg_miss_latency::total 99237.117977                       # average overall miss latency
system.cpu3.dcache.blocked_cycles::no_mshrs            0                       # number of cycles access was blocked
system.cpu3.dcache.blocked_cycles::no_targets      3388761                       # number of cycles access was blocked
system.cpu3.dcache.blocked::no_mshrs                0                       # number of cycles access was blocked
system.cpu3.dcache.blocked::no_targets             18                       # number of cycles access was blocked
system.cpu3.dcache.avg_blocked_cycles::no_mshrs          nan                       # average number of cycles each access was blocked
system.cpu3.dcache.avg_blocked_cycles::no_targets 188264.500000                       # average number of cycles each access was blocked
system.cpu3.dcache.fast_writes                      0                       # number of fast writes performed
system.cpu3.dcache.cache_copies                     0                       # number of cache copies performed
system.cpu3.dcache.writebacks::writebacks        27306                       # number of writebacks
system.cpu3.dcache.writebacks::total            27306                       # number of writebacks
system.cpu3.dcache.ReadReq_mshr_hits::switch_cpus3.data        97199                       # number of ReadReq MSHR hits
system.cpu3.dcache.ReadReq_mshr_hits::total        97199                       # number of ReadReq MSHR hits
system.cpu3.dcache.WriteReq_mshr_hits::switch_cpus3.data         3751                       # number of WriteReq MSHR hits
system.cpu3.dcache.WriteReq_mshr_hits::total         3751                       # number of WriteReq MSHR hits
system.cpu3.dcache.demand_mshr_hits::switch_cpus3.data       100950                       # number of demand (read+write) MSHR hits
system.cpu3.dcache.demand_mshr_hits::total       100950                       # number of demand (read+write) MSHR hits
system.cpu3.dcache.overall_mshr_hits::switch_cpus3.data       100950                       # number of overall MSHR hits
system.cpu3.dcache.overall_mshr_hits::total       100950                       # number of overall MSHR hits
system.cpu3.dcache.ReadReq_mshr_misses::switch_cpus3.data        51074                       # number of ReadReq MSHR misses
system.cpu3.dcache.ReadReq_mshr_misses::total        51074                       # number of ReadReq MSHR misses
system.cpu3.dcache.WriteReq_mshr_misses::switch_cpus3.data            6                       # number of WriteReq MSHR misses
system.cpu3.dcache.WriteReq_mshr_misses::total            6                       # number of WriteReq MSHR misses
system.cpu3.dcache.demand_mshr_misses::switch_cpus3.data        51080                       # number of demand (read+write) MSHR misses
system.cpu3.dcache.demand_mshr_misses::total        51080                       # number of demand (read+write) MSHR misses
system.cpu3.dcache.overall_mshr_misses::switch_cpus3.data        51080                       # number of overall MSHR misses
system.cpu3.dcache.overall_mshr_misses::total        51080                       # number of overall MSHR misses
system.cpu3.dcache.ReadReq_mshr_miss_latency::switch_cpus3.data   4202779532                       # number of ReadReq MSHR miss cycles
system.cpu3.dcache.ReadReq_mshr_miss_latency::total   4202779532                       # number of ReadReq MSHR miss cycles
system.cpu3.dcache.WriteReq_mshr_miss_latency::switch_cpus3.data      2234053                       # number of WriteReq MSHR miss cycles
system.cpu3.dcache.WriteReq_mshr_miss_latency::total      2234053                       # number of WriteReq MSHR miss cycles
system.cpu3.dcache.demand_mshr_miss_latency::switch_cpus3.data   4205013585                       # number of demand (read+write) MSHR miss cycles
system.cpu3.dcache.demand_mshr_miss_latency::total   4205013585                       # number of demand (read+write) MSHR miss cycles
system.cpu3.dcache.overall_mshr_miss_latency::switch_cpus3.data   4205013585                       # number of overall MSHR miss cycles
system.cpu3.dcache.overall_mshr_miss_latency::total   4205013585                       # number of overall MSHR miss cycles
system.cpu3.dcache.ReadReq_mshr_miss_rate::switch_cpus3.data     0.005634                       # mshr miss rate for ReadReq accesses
system.cpu3.dcache.ReadReq_mshr_miss_rate::total     0.005634                       # mshr miss rate for ReadReq accesses
system.cpu3.dcache.WriteReq_mshr_miss_rate::switch_cpus3.data     0.000001                       # mshr miss rate for WriteReq accesses
system.cpu3.dcache.WriteReq_mshr_miss_rate::total     0.000001                       # mshr miss rate for WriteReq accesses
system.cpu3.dcache.demand_mshr_miss_rate::switch_cpus3.data     0.003176                       # mshr miss rate for demand accesses
system.cpu3.dcache.demand_mshr_miss_rate::total     0.003176                       # mshr miss rate for demand accesses
system.cpu3.dcache.overall_mshr_miss_rate::switch_cpus3.data     0.003176                       # mshr miss rate for overall accesses
system.cpu3.dcache.overall_mshr_miss_rate::total     0.003176                       # mshr miss rate for overall accesses
system.cpu3.dcache.ReadReq_avg_mshr_miss_latency::switch_cpus3.data 82288.043466                       # average ReadReq mshr miss latency
system.cpu3.dcache.ReadReq_avg_mshr_miss_latency::total 82288.043466                       # average ReadReq mshr miss latency
system.cpu3.dcache.WriteReq_avg_mshr_miss_latency::switch_cpus3.data 372342.166667                       # average WriteReq mshr miss latency
system.cpu3.dcache.WriteReq_avg_mshr_miss_latency::total 372342.166667                       # average WriteReq mshr miss latency
system.cpu3.dcache.demand_avg_mshr_miss_latency::switch_cpus3.data 82322.114037                       # average overall mshr miss latency
system.cpu3.dcache.demand_avg_mshr_miss_latency::total 82322.114037                       # average overall mshr miss latency
system.cpu3.dcache.overall_avg_mshr_miss_latency::switch_cpus3.data 82322.114037                       # average overall mshr miss latency
system.cpu3.dcache.overall_avg_mshr_miss_latency::total 82322.114037                       # average overall mshr miss latency
system.cpu3.dcache.no_allocate_misses               0                       # Number of misses that were no-allocate

---------- End Simulation Statistics   ----------
