
---------- Begin Simulation Statistics ----------
sim_seconds                                  0.117875                       # Number of seconds simulated
sim_ticks                                117874788201                       # Number of ticks simulated
final_tick                               687706081335                       # Number of ticks from beginning of simulation (restored from checkpoints and never reset)
sim_freq                                 1000000000000                       # Frequency of simulated ticks
host_inst_rate                                 193546                       # Simulator instruction rate (inst/s)
host_op_rate                                   249244                       # Simulator op (including micro ops) rate (op/s)
host_tick_rate                                6533020                       # Simulator tick rate (ticks/s)
host_mem_usage                               16911436                       # Number of bytes of host memory used
host_seconds                                 18042.93                       # Real time elapsed on the host
sim_insts                                  3492128597                       # Number of instructions simulated
sim_ops                                    4497096626                       # Number of ops (including micro ops) simulated
system.physmem.bytes_read::switch_cpus0.inst         1792                       # Number of bytes read from this memory
system.physmem.bytes_read::switch_cpus0.data      1654528                       # Number of bytes read from this memory
system.physmem.bytes_read::switch_cpus1.inst         1792                       # Number of bytes read from this memory
system.physmem.bytes_read::switch_cpus1.data       681088                       # Number of bytes read from this memory
system.physmem.bytes_read::switch_cpus2.inst         1280                       # Number of bytes read from this memory
system.physmem.bytes_read::switch_cpus2.data      2243328                       # Number of bytes read from this memory
system.physmem.bytes_read::total              4583808                       # Number of bytes read from this memory
system.physmem.bytes_inst_read::switch_cpus0.inst         1792                       # Number of instructions bytes read from this memory
system.physmem.bytes_inst_read::switch_cpus1.inst         1792                       # Number of instructions bytes read from this memory
system.physmem.bytes_inst_read::switch_cpus2.inst         1280                       # Number of instructions bytes read from this memory
system.physmem.bytes_inst_read::total            4864                       # Number of instructions bytes read from this memory
system.physmem.bytes_written::writebacks      1340032                       # Number of bytes written to this memory
system.physmem.bytes_written::total           1340032                       # Number of bytes written to this memory
system.physmem.num_reads::switch_cpus0.inst           14                       # Number of read requests responded to by this memory
system.physmem.num_reads::switch_cpus0.data        12926                       # Number of read requests responded to by this memory
system.physmem.num_reads::switch_cpus1.inst           14                       # Number of read requests responded to by this memory
system.physmem.num_reads::switch_cpus1.data         5321                       # Number of read requests responded to by this memory
system.physmem.num_reads::switch_cpus2.inst           10                       # Number of read requests responded to by this memory
system.physmem.num_reads::switch_cpus2.data        17526                       # Number of read requests responded to by this memory
system.physmem.num_reads::total                 35811                       # Number of read requests responded to by this memory
system.physmem.num_writes::writebacks           10469                       # Number of write requests responded to by this memory
system.physmem.num_writes::functional               0                       # Number of write requests responded to by this memory
system.physmem.num_writes::interrupt                0                       # Number of write requests responded to by this memory
system.physmem.num_writes::switch_cpus0.dtb.walker            0                       # Number of write requests responded to by this memory
system.physmem.num_writes::switch_cpus0.itb.walker            0                       # Number of write requests responded to by this memory
system.physmem.num_writes::switch_cpus0.inst            0                       # Number of write requests responded to by this memory
system.physmem.num_writes::switch_cpus0.data            0                       # Number of write requests responded to by this memory
system.physmem.num_writes::switch_cpus1.dtb.walker            0                       # Number of write requests responded to by this memory
system.physmem.num_writes::switch_cpus1.itb.walker            0                       # Number of write requests responded to by this memory
system.physmem.num_writes::switch_cpus1.inst            0                       # Number of write requests responded to by this memory
system.physmem.num_writes::switch_cpus1.data            0                       # Number of write requests responded to by this memory
system.physmem.num_writes::switch_cpus2.dtb.walker            0                       # Number of write requests responded to by this memory
system.physmem.num_writes::switch_cpus2.itb.walker            0                       # Number of write requests responded to by this memory
system.physmem.num_writes::switch_cpus2.inst            0                       # Number of write requests responded to by this memory
system.physmem.num_writes::switch_cpus2.data            0                       # Number of write requests responded to by this memory
system.physmem.num_writes::cpu0.dtb.walker            0                       # Number of write requests responded to by this memory
system.physmem.num_writes::cpu0.itb.walker            0                       # Number of write requests responded to by this memory
system.physmem.num_writes::cpu0.inst                0                       # Number of write requests responded to by this memory
system.physmem.num_writes::cpu0.data                0                       # Number of write requests responded to by this memory
system.physmem.num_writes::cpu1.dtb.walker            0                       # Number of write requests responded to by this memory
system.physmem.num_writes::cpu1.itb.walker            0                       # Number of write requests responded to by this memory
system.physmem.num_writes::cpu1.inst                0                       # Number of write requests responded to by this memory
system.physmem.num_writes::cpu1.data                0                       # Number of write requests responded to by this memory
system.physmem.num_writes::cpu2.dtb.walker            0                       # Number of write requests responded to by this memory
system.physmem.num_writes::cpu2.itb.walker            0                       # Number of write requests responded to by this memory
system.physmem.num_writes::cpu2.inst                0                       # Number of write requests responded to by this memory
system.physmem.num_writes::cpu2.data                0                       # Number of write requests responded to by this memory
system.physmem.num_writes::total                10469                       # Number of write requests responded to by this memory
system.physmem.bw_read::switch_cpus0.inst        15203                       # Total read bandwidth from this memory (bytes/s)
system.physmem.bw_read::switch_cpus0.data     14036318                       # Total read bandwidth from this memory (bytes/s)
system.physmem.bw_read::switch_cpus1.inst        15203                       # Total read bandwidth from this memory (bytes/s)
system.physmem.bw_read::switch_cpus1.data      5778063                       # Total read bandwidth from this memory (bytes/s)
system.physmem.bw_read::switch_cpus2.inst        10859                       # Total read bandwidth from this memory (bytes/s)
system.physmem.bw_read::switch_cpus2.data     19031449                       # Total read bandwidth from this memory (bytes/s)
system.physmem.bw_read::total                38887094                       # Total read bandwidth from this memory (bytes/s)
system.physmem.bw_inst_read::switch_cpus0.inst        15203                       # Instruction read bandwidth from this memory (bytes/s)
system.physmem.bw_inst_read::switch_cpus1.inst        15203                       # Instruction read bandwidth from this memory (bytes/s)
system.physmem.bw_inst_read::switch_cpus2.inst        10859                       # Instruction read bandwidth from this memory (bytes/s)
system.physmem.bw_inst_read::total              41264                       # Instruction read bandwidth from this memory (bytes/s)
system.physmem.bw_write::writebacks          11368266                       # Write bandwidth from this memory (bytes/s)
system.physmem.bw_write::total               11368266                       # Write bandwidth from this memory (bytes/s)
system.physmem.bw_total::writebacks          11368266                       # Total bandwidth to/from this memory (bytes/s)
system.physmem.bw_total::switch_cpus0.inst        15203                       # Total bandwidth to/from this memory (bytes/s)
system.physmem.bw_total::switch_cpus0.data     14036318                       # Total bandwidth to/from this memory (bytes/s)
system.physmem.bw_total::switch_cpus1.inst        15203                       # Total bandwidth to/from this memory (bytes/s)
system.physmem.bw_total::switch_cpus1.data      5778063                       # Total bandwidth to/from this memory (bytes/s)
system.physmem.bw_total::switch_cpus2.inst        10859                       # Total bandwidth to/from this memory (bytes/s)
system.physmem.bw_total::switch_cpus2.data     19031449                       # Total bandwidth to/from this memory (bytes/s)
system.physmem.bw_total::total               50255361                       # Total bandwidth to/from this memory (bytes/s)
system.switch_cpus0.dtb.inst_hits                   0                       # ITB inst hits
system.switch_cpus0.dtb.inst_misses                 0                       # ITB inst misses
system.switch_cpus0.dtb.read_hits                   0                       # DTB read hits
system.switch_cpus0.dtb.read_misses                 0                       # DTB read misses
system.switch_cpus0.dtb.write_hits                  0                       # DTB write hits
system.switch_cpus0.dtb.write_misses                0                       # DTB write misses
system.switch_cpus0.dtb.flush_tlb                   0                       # Number of times complete TLB was flushed
system.switch_cpus0.dtb.flush_tlb_mva               0                       # Number of times TLB was flushed by MVA
system.switch_cpus0.dtb.flush_tlb_mva_asid            0                       # Number of times TLB was flushed by MVA & ASID
system.switch_cpus0.dtb.flush_tlb_asid              0                       # Number of times TLB was flushed by ASID
system.switch_cpus0.dtb.flush_entries               0                       # Number of entries that have been flushed from TLB
system.switch_cpus0.dtb.align_faults                0                       # Number of TLB faults due to alignment restrictions
system.switch_cpus0.dtb.prefetch_faults             0                       # Number of TLB faults due to prefetch
system.switch_cpus0.dtb.domain_faults               0                       # Number of TLB faults due to domain restrictions
system.switch_cpus0.dtb.perms_faults                0                       # Number of TLB faults due to permissions restrictions
system.switch_cpus0.dtb.read_accesses               0                       # DTB read accesses
system.switch_cpus0.dtb.write_accesses              0                       # DTB write accesses
system.switch_cpus0.dtb.inst_accesses               0                       # ITB inst accesses
system.switch_cpus0.dtb.hits                        0                       # DTB hits
system.switch_cpus0.dtb.misses                      0                       # DTB misses
system.switch_cpus0.dtb.accesses                    0                       # DTB accesses
system.switch_cpus0.itb.inst_hits                   0                       # ITB inst hits
system.switch_cpus0.itb.inst_misses                 0                       # ITB inst misses
system.switch_cpus0.itb.read_hits                   0                       # DTB read hits
system.switch_cpus0.itb.read_misses                 0                       # DTB read misses
system.switch_cpus0.itb.write_hits                  0                       # DTB write hits
system.switch_cpus0.itb.write_misses                0                       # DTB write misses
system.switch_cpus0.itb.flush_tlb                   0                       # Number of times complete TLB was flushed
system.switch_cpus0.itb.flush_tlb_mva               0                       # Number of times TLB was flushed by MVA
system.switch_cpus0.itb.flush_tlb_mva_asid            0                       # Number of times TLB was flushed by MVA & ASID
system.switch_cpus0.itb.flush_tlb_asid              0                       # Number of times TLB was flushed by ASID
system.switch_cpus0.itb.flush_entries               0                       # Number of entries that have been flushed from TLB
system.switch_cpus0.itb.align_faults                0                       # Number of TLB faults due to alignment restrictions
system.switch_cpus0.itb.prefetch_faults             0                       # Number of TLB faults due to prefetch
system.switch_cpus0.itb.domain_faults               0                       # Number of TLB faults due to domain restrictions
system.switch_cpus0.itb.perms_faults                0                       # Number of TLB faults due to permissions restrictions
system.switch_cpus0.itb.read_accesses               0                       # DTB read accesses
system.switch_cpus0.itb.write_accesses              0                       # DTB write accesses
system.switch_cpus0.itb.inst_accesses               0                       # ITB inst accesses
system.switch_cpus0.itb.hits                        0                       # DTB hits
system.switch_cpus0.itb.misses                      0                       # DTB misses
system.switch_cpus0.itb.accesses                    0                       # DTB accesses
system.cpu0.workload.num_syscalls                   0                       # Number of system calls
system.switch_cpus0.numCycles               282673354                       # number of cpu cycles simulated
system.switch_cpus0.numWorkItemsStarted             0                       # number of work items this cpu started
system.switch_cpus0.numWorkItemsCompleted            0                       # number of work items this cpu completed
system.switch_cpus0.BPredUnit.lookups        21115057                       # Number of BP lookups
system.switch_cpus0.BPredUnit.condPredicted     18751691                       # Number of conditional branches predicted
system.switch_cpus0.BPredUnit.condIncorrect      1828693                       # Number of conditional branches incorrect
system.switch_cpus0.BPredUnit.BTBLookups     11099511                       # Number of BTB lookups
system.switch_cpus0.BPredUnit.BTBHits        10810923                       # Number of BTB hits
system.switch_cpus0.BPredUnit.BTBCorrect            0                       # Number of correct BTB predictions (this stat may not work properly.
system.switch_cpus0.BPredUnit.usedRAS         1340310                       # Number of times the RAS was used to get a target.
system.switch_cpus0.BPredUnit.RASInCorrect        52524                       # Number of incorrect RAS predictions.
system.switch_cpus0.fetch.icacheStallCycles    227842984                       # Number of cycles fetch is stalled on an Icache miss
system.switch_cpus0.fetch.Insts             119570641                       # Number of instructions fetch has processed
system.switch_cpus0.fetch.Branches           21115057                       # Number of branches that fetch encountered
system.switch_cpus0.fetch.predictedBranches     12151233                       # Number of branches that fetch has predicted taken
system.switch_cpus0.fetch.Cycles             24171548                       # Number of cycles fetch has run and was not squashing or blocked
system.switch_cpus0.fetch.SquashCycles        5590220                       # Number of cycles fetch has spent squashing
system.switch_cpus0.fetch.BlockedCycles       2403259                       # Number of cycles fetch has spent blocked
system.switch_cpus0.fetch.PendingTrapStallCycles           23                       # Number of stall cycles due to pending traps
system.switch_cpus0.fetch.CacheLines         13945072                       # Number of cache lines fetched
system.switch_cpus0.fetch.IcacheSquashes      1822191                       # Number of outstanding Icache misses that were squashed
system.switch_cpus0.fetch.rateDist::samples    258169875                       # Number of instructions fetched each cycle (Total)
system.switch_cpus0.fetch.rateDist::mean     0.521680                       # Number of instructions fetched each cycle (Total)
system.switch_cpus0.fetch.rateDist::stdev     1.771137                       # Number of instructions fetched each cycle (Total)
system.switch_cpus0.fetch.rateDist::underflows            0      0.00%      0.00% # Number of instructions fetched each cycle (Total)
system.switch_cpus0.fetch.rateDist::0       233998327     90.64%     90.64% # Number of instructions fetched each cycle (Total)
system.switch_cpus0.fetch.rateDist::1         1096801      0.42%     91.06% # Number of instructions fetched each cycle (Total)
system.switch_cpus0.fetch.rateDist::2         2037094      0.79%     91.85% # Number of instructions fetched each cycle (Total)
system.switch_cpus0.fetch.rateDist::3         1764543      0.68%     92.53% # Number of instructions fetched each cycle (Total)
system.switch_cpus0.fetch.rateDist::4         3577747      1.39%     93.92% # Number of instructions fetched each cycle (Total)
system.switch_cpus0.fetch.rateDist::5         4334128      1.68%     95.60% # Number of instructions fetched each cycle (Total)
system.switch_cpus0.fetch.rateDist::6         1044089      0.40%     96.00% # Number of instructions fetched each cycle (Total)
system.switch_cpus0.fetch.rateDist::7          565778      0.22%     96.22% # Number of instructions fetched each cycle (Total)
system.switch_cpus0.fetch.rateDist::8         9751368      3.78%    100.00% # Number of instructions fetched each cycle (Total)
system.switch_cpus0.fetch.rateDist::overflows            0      0.00%    100.00% # Number of instructions fetched each cycle (Total)
system.switch_cpus0.fetch.rateDist::min_value            0                       # Number of instructions fetched each cycle (Total)
system.switch_cpus0.fetch.rateDist::max_value            8                       # Number of instructions fetched each cycle (Total)
system.switch_cpus0.fetch.rateDist::total    258169875                       # Number of instructions fetched each cycle (Total)
system.switch_cpus0.fetch.branchRate         0.074698                       # Number of branch fetches per cycle
system.switch_cpus0.fetch.rate               0.422999                       # Number of inst fetches per cycle
system.switch_cpus0.decode.IdleCycles       226183618                       # Number of cycles decode is idle
system.switch_cpus0.decode.BlockedCycles      4080130                       # Number of cycles decode is blocked
system.switch_cpus0.decode.RunCycles         24133846                       # Number of cycles decode is running
system.switch_cpus0.decode.UnblockCycles        25051                       # Number of cycles decode is unblocking
system.switch_cpus0.decode.SquashCycles       3747229                       # Number of cycles decode is squashing
system.switch_cpus0.decode.BranchResolved      2060728                       # Number of times decode resolved a branch
system.switch_cpus0.decode.BranchMispred         4832                       # Number of times decode detected a branch misprediction
system.switch_cpus0.decode.DecodedInsts     134603510                       # Number of instructions handled by decode
system.switch_cpus0.decode.SquashedInsts         1327                       # Number of squashed instructions handled by decode
system.switch_cpus0.rename.SquashCycles       3747229                       # Number of cycles rename is squashing
system.switch_cpus0.rename.IdleCycles       226455056                       # Number of cycles rename is idle
system.switch_cpus0.rename.BlockCycles        1992672                       # Number of cycles rename is blocking
system.switch_cpus0.rename.serializeStallCycles      1273804                       # count of cycles rename stalled for serializing inst
system.switch_cpus0.rename.RunCycles         23876915                       # Number of cycles rename is running
system.switch_cpus0.rename.UnblockCycles       824197                       # Number of cycles rename is unblocking
system.switch_cpus0.rename.RenamedInsts     134491257                       # Number of instructions processed by rename
system.switch_cpus0.rename.ROBFullEvents            8                       # Number of times rename has blocked due to ROB full
system.switch_cpus0.rename.IQFullEvents         87508                       # Number of times rename has blocked due to IQ full
system.switch_cpus0.rename.LSQFullEvents       506430                       # Number of times rename has blocked due to LSQ full
system.switch_cpus0.rename.RenamedOperands    177544078                       # Number of destination operands rename has renamed
system.switch_cpus0.rename.RenameLookups    608087595                       # Number of register rename lookups that rename has made
system.switch_cpus0.rename.int_rename_lookups    608087595                       # Number of integer rename lookups
system.switch_cpus0.rename.CommittedMaps    146711191                       # Number of HB maps that are committed
system.switch_cpus0.rename.UndoneMaps        30832879                       # Number of HB maps that are undone due to squashing
system.switch_cpus0.rename.serializingInsts        18451                       # count of serializing insts renamed
system.switch_cpus0.rename.tempSerializingInsts         9231                       # count of temporary serializing insts renamed
system.switch_cpus0.rename.skidInsts          2570868                       # count of insts added to the skid buffer
system.switch_cpus0.memDep0.insertedLoads     23435725                       # Number of loads inserted to the mem dependence unit.
system.switch_cpus0.memDep0.insertedStores      4142940                       # Number of stores inserted to the mem dependence unit.
system.switch_cpus0.memDep0.conflictingLoads        74732                       # Number of conflicting loads.
system.switch_cpus0.memDep0.conflictingStores       927809                       # Number of conflicting stores.
system.switch_cpus0.iq.iqInstsAdded         133987366                       # Number of instructions added to the IQ (excludes non-spec)
system.switch_cpus0.iq.iqNonSpecInstsAdded        18451                       # Number of non-speculative instructions added to the IQ
system.switch_cpus0.iq.iqInstsIssued        127233356                       # Number of instructions issued
system.switch_cpus0.iq.iqSquashedInstsIssued        80292                       # Number of squashed instructions issued
system.switch_cpus0.iq.iqSquashedInstsExamined     20284381                       # Number of squashed instructions iterated over during squash; mainly for profiling
system.switch_cpus0.iq.iqSquashedOperandsExamined     42640569                       # Number of squashed operands that are examined and possibly removed from graph
system.switch_cpus0.iq.iqSquashedNonSpecRemoved           11                       # Number of squashed non-spec instructions that were removed
system.switch_cpus0.iq.issued_per_cycle::samples    258169875                       # Number of insts issued each cycle
system.switch_cpus0.iq.issued_per_cycle::mean     0.492828                       # Number of insts issued each cycle
system.switch_cpus0.iq.issued_per_cycle::stdev     1.175918                       # Number of insts issued each cycle
system.switch_cpus0.iq.issued_per_cycle::underflows            0      0.00%      0.00% # Number of insts issued each cycle
system.switch_cpus0.iq.issued_per_cycle::0    203724196     78.91%     78.91% # Number of insts issued each cycle
system.switch_cpus0.iq.issued_per_cycle::1     22825554      8.84%     87.75% # Number of insts issued each cycle
system.switch_cpus0.iq.issued_per_cycle::2     11702064      4.53%     92.28% # Number of insts issued each cycle
system.switch_cpus0.iq.issued_per_cycle::3      6744158      2.61%     94.90% # Number of insts issued each cycle
system.switch_cpus0.iq.issued_per_cycle::4      7499061      2.90%     97.80% # Number of insts issued each cycle
system.switch_cpus0.iq.issued_per_cycle::5      3758083      1.46%     99.26% # Number of insts issued each cycle
system.switch_cpus0.iq.issued_per_cycle::6      1499752      0.58%     99.84% # Number of insts issued each cycle
system.switch_cpus0.iq.issued_per_cycle::7       350027      0.14%     99.97% # Number of insts issued each cycle
system.switch_cpus0.iq.issued_per_cycle::8        66980      0.03%    100.00% # Number of insts issued each cycle
system.switch_cpus0.iq.issued_per_cycle::overflows            0      0.00%    100.00% # Number of insts issued each cycle
system.switch_cpus0.iq.issued_per_cycle::min_value            0                       # Number of insts issued each cycle
system.switch_cpus0.iq.issued_per_cycle::max_value            8                       # Number of insts issued each cycle
system.switch_cpus0.iq.issued_per_cycle::total    258169875                       # Number of insts issued each cycle
system.switch_cpus0.iq.fu_full::No_OpClass            0      0.00%      0.00% # attempts to use FU when none available
system.switch_cpus0.iq.fu_full::IntAlu         233641     47.85%     47.85% # attempts to use FU when none available
system.switch_cpus0.iq.fu_full::IntMult             0      0.00%     47.85% # attempts to use FU when none available
system.switch_cpus0.iq.fu_full::IntDiv              0      0.00%     47.85% # attempts to use FU when none available
system.switch_cpus0.iq.fu_full::FloatAdd            0      0.00%     47.85% # attempts to use FU when none available
system.switch_cpus0.iq.fu_full::FloatCmp            0      0.00%     47.85% # attempts to use FU when none available
system.switch_cpus0.iq.fu_full::FloatCvt            0      0.00%     47.85% # attempts to use FU when none available
system.switch_cpus0.iq.fu_full::FloatMult            0      0.00%     47.85% # attempts to use FU when none available
system.switch_cpus0.iq.fu_full::FloatDiv            0      0.00%     47.85% # attempts to use FU when none available
system.switch_cpus0.iq.fu_full::FloatSqrt            0      0.00%     47.85% # attempts to use FU when none available
system.switch_cpus0.iq.fu_full::SimdAdd             0      0.00%     47.85% # attempts to use FU when none available
system.switch_cpus0.iq.fu_full::SimdAddAcc            0      0.00%     47.85% # attempts to use FU when none available
system.switch_cpus0.iq.fu_full::SimdAlu             0      0.00%     47.85% # attempts to use FU when none available
system.switch_cpus0.iq.fu_full::SimdCmp             0      0.00%     47.85% # attempts to use FU when none available
system.switch_cpus0.iq.fu_full::SimdCvt             0      0.00%     47.85% # attempts to use FU when none available
system.switch_cpus0.iq.fu_full::SimdMisc            0      0.00%     47.85% # attempts to use FU when none available
system.switch_cpus0.iq.fu_full::SimdMult            0      0.00%     47.85% # attempts to use FU when none available
system.switch_cpus0.iq.fu_full::SimdMultAcc            0      0.00%     47.85% # attempts to use FU when none available
system.switch_cpus0.iq.fu_full::SimdShift            0      0.00%     47.85% # attempts to use FU when none available
system.switch_cpus0.iq.fu_full::SimdShiftAcc            0      0.00%     47.85% # attempts to use FU when none available
system.switch_cpus0.iq.fu_full::SimdSqrt            0      0.00%     47.85% # attempts to use FU when none available
system.switch_cpus0.iq.fu_full::SimdFloatAdd            0      0.00%     47.85% # attempts to use FU when none available
system.switch_cpus0.iq.fu_full::SimdFloatAlu            0      0.00%     47.85% # attempts to use FU when none available
system.switch_cpus0.iq.fu_full::SimdFloatCmp            0      0.00%     47.85% # attempts to use FU when none available
system.switch_cpus0.iq.fu_full::SimdFloatCvt            0      0.00%     47.85% # attempts to use FU when none available
system.switch_cpus0.iq.fu_full::SimdFloatDiv            0      0.00%     47.85% # attempts to use FU when none available
system.switch_cpus0.iq.fu_full::SimdFloatMisc            0      0.00%     47.85% # attempts to use FU when none available
system.switch_cpus0.iq.fu_full::SimdFloatMult            0      0.00%     47.85% # attempts to use FU when none available
system.switch_cpus0.iq.fu_full::SimdFloatMultAcc            0      0.00%     47.85% # attempts to use FU when none available
system.switch_cpus0.iq.fu_full::SimdFloatSqrt            0      0.00%     47.85% # attempts to use FU when none available
system.switch_cpus0.iq.fu_full::MemRead        179631     36.79%     84.64% # attempts to use FU when none available
system.switch_cpus0.iq.fu_full::MemWrite        74970     15.36%    100.00% # attempts to use FU when none available
system.switch_cpus0.iq.fu_full::IprAccess            0      0.00%    100.00% # attempts to use FU when none available
system.switch_cpus0.iq.fu_full::InstPrefetch            0      0.00%    100.00% # attempts to use FU when none available
system.switch_cpus0.iq.FU_type_0::No_OpClass            0      0.00%      0.00% # Type of FU issued
system.switch_cpus0.iq.FU_type_0::IntAlu     99862827     78.49%     78.49% # Type of FU issued
system.switch_cpus0.iq.FU_type_0::IntMult      1005769      0.79%     79.28% # Type of FU issued
system.switch_cpus0.iq.FU_type_0::IntDiv            0      0.00%     79.28% # Type of FU issued
system.switch_cpus0.iq.FU_type_0::FloatAdd            0      0.00%     79.28% # Type of FU issued
system.switch_cpus0.iq.FU_type_0::FloatCmp            0      0.00%     79.28% # Type of FU issued
system.switch_cpus0.iq.FU_type_0::FloatCvt            0      0.00%     79.28% # Type of FU issued
system.switch_cpus0.iq.FU_type_0::FloatMult            0      0.00%     79.28% # Type of FU issued
system.switch_cpus0.iq.FU_type_0::FloatDiv            0      0.00%     79.28% # Type of FU issued
system.switch_cpus0.iq.FU_type_0::FloatSqrt            0      0.00%     79.28% # Type of FU issued
system.switch_cpus0.iq.FU_type_0::SimdAdd            0      0.00%     79.28% # Type of FU issued
system.switch_cpus0.iq.FU_type_0::SimdAddAcc            0      0.00%     79.28% # Type of FU issued
system.switch_cpus0.iq.FU_type_0::SimdAlu            0      0.00%     79.28% # Type of FU issued
system.switch_cpus0.iq.FU_type_0::SimdCmp            0      0.00%     79.28% # Type of FU issued
system.switch_cpus0.iq.FU_type_0::SimdCvt            0      0.00%     79.28% # Type of FU issued
system.switch_cpus0.iq.FU_type_0::SimdMisc            0      0.00%     79.28% # Type of FU issued
system.switch_cpus0.iq.FU_type_0::SimdMult            0      0.00%     79.28% # Type of FU issued
system.switch_cpus0.iq.FU_type_0::SimdMultAcc            0      0.00%     79.28% # Type of FU issued
system.switch_cpus0.iq.FU_type_0::SimdShift            0      0.00%     79.28% # Type of FU issued
system.switch_cpus0.iq.FU_type_0::SimdShiftAcc            0      0.00%     79.28% # Type of FU issued
system.switch_cpus0.iq.FU_type_0::SimdSqrt            0      0.00%     79.28% # Type of FU issued
system.switch_cpus0.iq.FU_type_0::SimdFloatAdd            0      0.00%     79.28% # Type of FU issued
system.switch_cpus0.iq.FU_type_0::SimdFloatAlu            0      0.00%     79.28% # Type of FU issued
system.switch_cpus0.iq.FU_type_0::SimdFloatCmp            0      0.00%     79.28% # Type of FU issued
system.switch_cpus0.iq.FU_type_0::SimdFloatCvt            0      0.00%     79.28% # Type of FU issued
system.switch_cpus0.iq.FU_type_0::SimdFloatDiv            0      0.00%     79.28% # Type of FU issued
system.switch_cpus0.iq.FU_type_0::SimdFloatMisc         9220      0.01%     79.29% # Type of FU issued
system.switch_cpus0.iq.FU_type_0::SimdFloatMult            0      0.00%     79.29% # Type of FU issued
system.switch_cpus0.iq.FU_type_0::SimdFloatMultAcc            0      0.00%     79.29% # Type of FU issued
system.switch_cpus0.iq.FU_type_0::SimdFloatSqrt            0      0.00%     79.29% # Type of FU issued
system.switch_cpus0.iq.FU_type_0::MemRead     22233698     17.47%     96.76% # Type of FU issued
system.switch_cpus0.iq.FU_type_0::MemWrite      4121842      3.24%    100.00% # Type of FU issued
system.switch_cpus0.iq.FU_type_0::IprAccess            0      0.00%    100.00% # Type of FU issued
system.switch_cpus0.iq.FU_type_0::InstPrefetch            0      0.00%    100.00% # Type of FU issued
system.switch_cpus0.iq.FU_type_0::total     127233356                       # Type of FU issued
system.switch_cpus0.iq.rate                  0.450107                       # Inst issue rate
system.switch_cpus0.iq.fu_busy_cnt             488242                       # FU busy when requested
system.switch_cpus0.iq.fu_busy_rate          0.003837                       # FU busy rate (busy events/executed inst)
system.switch_cpus0.iq.int_inst_queue_reads    513205121                       # Number of integer instruction queue reads
system.switch_cpus0.iq.int_inst_queue_writes    154290491                       # Number of integer instruction queue writes
system.switch_cpus0.iq.int_inst_queue_wakeup_accesses    124278461                       # Number of integer instruction queue wakeup accesses
system.switch_cpus0.iq.fp_inst_queue_reads            0                       # Number of floating instruction queue reads
system.switch_cpus0.iq.fp_inst_queue_writes            0                       # Number of floating instruction queue writes
system.switch_cpus0.iq.fp_inst_queue_wakeup_accesses            0                       # Number of floating instruction queue wakeup accesses
system.switch_cpus0.iq.int_alu_accesses     127721598                       # Number of integer alu accesses
system.switch_cpus0.iq.fp_alu_accesses              0                       # Number of floating point alu accesses
system.switch_cpus0.iew.lsq.thread0.forwLoads       225323                       # Number of loads that had data forwarded from stores
system.switch_cpus0.iew.lsq.thread0.invAddrLoads            0                       # Number of loads ignored due to an invalid address
system.switch_cpus0.iew.lsq.thread0.squashedLoads      3909916                       # Number of loads squashed
system.switch_cpus0.iew.lsq.thread0.ignoredResponses          215                       # Number of memory responses ignored because the instruction is squashed
system.switch_cpus0.iew.lsq.thread0.memOrderViolation          293                       # Number of memory ordering violations
system.switch_cpus0.iew.lsq.thread0.squashedStores       114032                       # Number of stores squashed
system.switch_cpus0.iew.lsq.thread0.invAddrSwpfs            0                       # Number of software prefetches ignored due to an invalid address
system.switch_cpus0.iew.lsq.thread0.blockedLoads            0                       # Number of blocked loads due to partial load-store forwarding
system.switch_cpus0.iew.lsq.thread0.rescheduledLoads            0                       # Number of loads that were rescheduled
system.switch_cpus0.iew.lsq.thread0.cacheBlocked            0                       # Number of times an access to memory failed due to the cache being blocked
system.switch_cpus0.iew.iewIdleCycles               0                       # Number of cycles IEW is idle
system.switch_cpus0.iew.iewSquashCycles       3747229                       # Number of cycles IEW is squashing
system.switch_cpus0.iew.iewBlockCycles        1410529                       # Number of cycles IEW is blocking
system.switch_cpus0.iew.iewUnblockCycles        64780                       # Number of cycles IEW is unblocking
system.switch_cpus0.iew.iewDispatchedInsts    134005818                       # Number of instructions dispatched to IQ
system.switch_cpus0.iew.iewDispSquashedInsts         5974                       # Number of squashed instructions skipped by dispatch
system.switch_cpus0.iew.iewDispLoadInsts     23435725                       # Number of dispatched load instructions
system.switch_cpus0.iew.iewDispStoreInsts      4142940                       # Number of dispatched store instructions
system.switch_cpus0.iew.iewDispNonSpecInsts         9231                       # Number of dispatched non-speculative instructions
system.switch_cpus0.iew.iewIQFullEvents         37326                       # Number of times the IQ has become full, causing a stall
system.switch_cpus0.iew.iewLSQFullEvents          523                       # Number of times the LSQ has become full, causing a stall
system.switch_cpus0.iew.memOrderViolationEvents          293                       # Number of memory order violations
system.switch_cpus0.iew.predictedTakenIncorrect       821722                       # Number of branches that were predicted taken incorrectly
system.switch_cpus0.iew.predictedNotTakenIncorrect      1103204                       # Number of branches that were predicted not taken incorrectly
system.switch_cpus0.iew.branchMispredicts      1924926                       # Number of branch mispredicts detected at execute
system.switch_cpus0.iew.iewExecutedInsts    126114252                       # Number of executed instructions
system.switch_cpus0.iew.iewExecLoadInsts     21958378                       # Number of load instructions executed
system.switch_cpus0.iew.iewExecSquashedInsts      1119104                       # Number of squashed instructions skipped in execute
system.switch_cpus0.iew.exec_swp                    0                       # number of swp insts executed
system.switch_cpus0.iew.exec_nop                    1                       # number of nop insts executed
system.switch_cpus0.iew.exec_refs            26080166                       # number of memory reference insts executed
system.switch_cpus0.iew.exec_branches        19491913                       # Number of branches executed
system.switch_cpus0.iew.exec_stores           4121788                       # Number of stores executed
system.switch_cpus0.iew.exec_rate            0.446148                       # Inst execution rate
system.switch_cpus0.iew.wb_sent             124313962                       # cumulative count of insts sent to commit
system.switch_cpus0.iew.wb_count            124278461                       # cumulative count of insts written-back
system.switch_cpus0.iew.wb_producers         71081131                       # num instructions producing a value
system.switch_cpus0.iew.wb_consumers        164020372                       # num instructions consuming a value
system.switch_cpus0.iew.wb_penalized                0                       # number of instrctions required to write to 'other' IQ
system.switch_cpus0.iew.wb_rate              0.439654                       # insts written-back per cycle
system.switch_cpus0.iew.wb_fanout            0.433368                       # average fanout of values written-back
system.switch_cpus0.iew.wb_penalized_rate            0                       # fraction of instructions written-back that wrote to 'other' IQ
system.switch_cpus0.commit.commitCommittedInsts    100000007                       # The number of committed instructions
system.switch_cpus0.commit.commitCommittedOps    112649212                       # The number of committed instructions
system.switch_cpus0.commit.commitSquashedInsts     21359578                       # The number of squashed insts skipped by commit
system.switch_cpus0.commit.commitNonSpecStalls        18440                       # The number of times commit has been forced to stall to communicate backwards
system.switch_cpus0.commit.branchMispredicts      1833099                       # The number of times a branch was mispredicted
system.switch_cpus0.commit.committed_per_cycle::samples    254422646                       # Number of insts commited each cycle
system.switch_cpus0.commit.committed_per_cycle::mean     0.442764                       # Number of insts commited each cycle
system.switch_cpus0.commit.committed_per_cycle::stdev     1.292587                       # Number of insts commited each cycle
system.switch_cpus0.commit.committed_per_cycle::underflows            0      0.00%      0.00% # Number of insts commited each cycle
system.switch_cpus0.commit.committed_per_cycle::0    212206266     83.41%     83.41% # Number of insts commited each cycle
system.switch_cpus0.commit.committed_per_cycle::1     15995166      6.29%     89.69% # Number of insts commited each cycle
system.switch_cpus0.commit.committed_per_cycle::2     12511975      4.92%     94.61% # Number of insts commited each cycle
system.switch_cpus0.commit.committed_per_cycle::3      2471757      0.97%     95.58% # Number of insts commited each cycle
system.switch_cpus0.commit.committed_per_cycle::4      3113661      1.22%     96.81% # Number of insts commited each cycle
system.switch_cpus0.commit.committed_per_cycle::5      1054225      0.41%     97.22% # Number of insts commited each cycle
system.switch_cpus0.commit.committed_per_cycle::6      4530090      1.78%     99.00% # Number of insts commited each cycle
system.switch_cpus0.commit.committed_per_cycle::7      1007532      0.40%     99.40% # Number of insts commited each cycle
system.switch_cpus0.commit.committed_per_cycle::8      1531974      0.60%    100.00% # Number of insts commited each cycle
system.switch_cpus0.commit.committed_per_cycle::overflows            0      0.00%    100.00% # Number of insts commited each cycle
system.switch_cpus0.commit.committed_per_cycle::min_value            0                       # Number of insts commited each cycle
system.switch_cpus0.commit.committed_per_cycle::max_value            8                       # Number of insts commited each cycle
system.switch_cpus0.commit.committed_per_cycle::total    254422646                       # Number of insts commited each cycle
system.switch_cpus0.commit.committedInsts    100000007                       # Number of instructions committed
system.switch_cpus0.commit.committedOps     112649212                       # Number of ops (including micro ops) committed
system.switch_cpus0.commit.swp_count                0                       # Number of s/w prefetches committed
system.switch_cpus0.commit.refs              23554717                       # Number of memory references committed
system.switch_cpus0.commit.loads             19525809                       # Number of loads committed
system.switch_cpus0.commit.membars               9220                       # Number of memory barriers committed
system.switch_cpus0.commit.branches          17774062                       # Number of branches committed
system.switch_cpus0.commit.fp_insts                 0                       # Number of committed floating point instructions.
system.switch_cpus0.commit.int_insts         97983637                       # Number of committed integer instructions.
system.switch_cpus0.commit.function_calls      1421934                       # Number of function calls committed.
system.switch_cpus0.commit.bw_lim_events      1531974                       # number cycles where commit BW limit reached
system.switch_cpus0.commit.bw_limited               0                       # number of insts not committed due to BW limits
system.switch_cpus0.rob.rob_reads           386899462                       # The number of ROB reads
system.switch_cpus0.rob.rob_writes          271764881                       # The number of ROB writes
system.switch_cpus0.timesIdled                6036689                       # Number of times that the entire CPU went into an idle state and unscheduled itself
system.switch_cpus0.idleCycles               24503479                       # Total number of cycles that the CPU has spent unscheduled due to idling
system.switch_cpus0.committedInsts          100000007                       # Number of Instructions Simulated
system.switch_cpus0.committedOps            112649212                       # Number of Ops (including micro ops) Simulated
system.switch_cpus0.committedInsts_total    100000007                       # Number of Instructions Simulated
system.switch_cpus0.cpi                      2.826733                       # CPI: Cycles Per Instruction
system.switch_cpus0.cpi_total                2.826733                       # CPI: Total CPI of All Threads
system.switch_cpus0.ipc                      0.353765                       # IPC: Instructions Per Cycle
system.switch_cpus0.ipc_total                0.353765                       # IPC: Total IPC of All Threads
system.switch_cpus0.int_regfile_reads       584005364                       # number of integer regfile reads
system.switch_cpus0.int_regfile_writes      162085945                       # number of integer regfile writes
system.switch_cpus0.misc_regfile_reads      142409323                       # number of misc regfile reads
system.switch_cpus0.misc_regfile_writes         18440                       # number of misc regfile writes
system.switch_cpus1.dtb.inst_hits                   0                       # ITB inst hits
system.switch_cpus1.dtb.inst_misses                 0                       # ITB inst misses
system.switch_cpus1.dtb.read_hits                   0                       # DTB read hits
system.switch_cpus1.dtb.read_misses                 0                       # DTB read misses
system.switch_cpus1.dtb.write_hits                  0                       # DTB write hits
system.switch_cpus1.dtb.write_misses                0                       # DTB write misses
system.switch_cpus1.dtb.flush_tlb                   0                       # Number of times complete TLB was flushed
system.switch_cpus1.dtb.flush_tlb_mva               0                       # Number of times TLB was flushed by MVA
system.switch_cpus1.dtb.flush_tlb_mva_asid            0                       # Number of times TLB was flushed by MVA & ASID
system.switch_cpus1.dtb.flush_tlb_asid              0                       # Number of times TLB was flushed by ASID
system.switch_cpus1.dtb.flush_entries               0                       # Number of entries that have been flushed from TLB
system.switch_cpus1.dtb.align_faults                0                       # Number of TLB faults due to alignment restrictions
system.switch_cpus1.dtb.prefetch_faults             0                       # Number of TLB faults due to prefetch
system.switch_cpus1.dtb.domain_faults               0                       # Number of TLB faults due to domain restrictions
system.switch_cpus1.dtb.perms_faults                0                       # Number of TLB faults due to permissions restrictions
system.switch_cpus1.dtb.read_accesses               0                       # DTB read accesses
system.switch_cpus1.dtb.write_accesses              0                       # DTB write accesses
system.switch_cpus1.dtb.inst_accesses               0                       # ITB inst accesses
system.switch_cpus1.dtb.hits                        0                       # DTB hits
system.switch_cpus1.dtb.misses                      0                       # DTB misses
system.switch_cpus1.dtb.accesses                    0                       # DTB accesses
system.switch_cpus1.itb.inst_hits                   0                       # ITB inst hits
system.switch_cpus1.itb.inst_misses                 0                       # ITB inst misses
system.switch_cpus1.itb.read_hits                   0                       # DTB read hits
system.switch_cpus1.itb.read_misses                 0                       # DTB read misses
system.switch_cpus1.itb.write_hits                  0                       # DTB write hits
system.switch_cpus1.itb.write_misses                0                       # DTB write misses
system.switch_cpus1.itb.flush_tlb                   0                       # Number of times complete TLB was flushed
system.switch_cpus1.itb.flush_tlb_mva               0                       # Number of times TLB was flushed by MVA
system.switch_cpus1.itb.flush_tlb_mva_asid            0                       # Number of times TLB was flushed by MVA & ASID
system.switch_cpus1.itb.flush_tlb_asid              0                       # Number of times TLB was flushed by ASID
system.switch_cpus1.itb.flush_entries               0                       # Number of entries that have been flushed from TLB
system.switch_cpus1.itb.align_faults                0                       # Number of TLB faults due to alignment restrictions
system.switch_cpus1.itb.prefetch_faults             0                       # Number of TLB faults due to prefetch
system.switch_cpus1.itb.domain_faults               0                       # Number of TLB faults due to domain restrictions
system.switch_cpus1.itb.perms_faults                0                       # Number of TLB faults due to permissions restrictions
system.switch_cpus1.itb.read_accesses               0                       # DTB read accesses
system.switch_cpus1.itb.write_accesses              0                       # DTB write accesses
system.switch_cpus1.itb.inst_accesses               0                       # ITB inst accesses
system.switch_cpus1.itb.hits                        0                       # DTB hits
system.switch_cpus1.itb.misses                      0                       # DTB misses
system.switch_cpus1.itb.accesses                    0                       # DTB accesses
system.cpu1.workload.num_syscalls                   0                       # Number of system calls
system.switch_cpus1.numCycles               282673354                       # number of cpu cycles simulated
system.switch_cpus1.numWorkItemsStarted             0                       # number of work items this cpu started
system.switch_cpus1.numWorkItemsCompleted            0                       # number of work items this cpu completed
system.switch_cpus1.BPredUnit.lookups        25520289                       # Number of BP lookups
system.switch_cpus1.BPredUnit.condPredicted     20689206                       # Number of conditional branches predicted
system.switch_cpus1.BPredUnit.condIncorrect      2347327                       # Number of conditional branches incorrect
system.switch_cpus1.BPredUnit.BTBLookups     10401207                       # Number of BTB lookups
system.switch_cpus1.BPredUnit.BTBHits         9672032                       # Number of BTB hits
system.switch_cpus1.BPredUnit.BTBCorrect            0                       # Number of correct BTB predictions (this stat may not work properly.
system.switch_cpus1.BPredUnit.usedRAS         2770485                       # Number of times the RAS was used to get a target.
system.switch_cpus1.BPredUnit.RASInCorrect       111147                       # Number of incorrect RAS predictions.
system.switch_cpus1.fetch.icacheStallCycles    221148657                       # Number of cycles fetch is stalled on an Icache miss
system.switch_cpus1.fetch.Insts             142283863                       # Number of instructions fetch has processed
system.switch_cpus1.fetch.Branches           25520289                       # Number of branches that fetch encountered
system.switch_cpus1.fetch.predictedBranches     12442517                       # Number of branches that fetch has predicted taken
system.switch_cpus1.fetch.Cycles             31322236                       # Number of cycles fetch has run and was not squashing or blocked
system.switch_cpus1.fetch.SquashCycles        7152008                       # Number of cycles fetch has spent squashing
system.switch_cpus1.fetch.BlockedCycles       4206012                       # Number of cycles fetch has spent blocked
system.switch_cpus1.fetch.CacheLines         13662175                       # Number of cache lines fetched
system.switch_cpus1.fetch.IcacheSquashes      2345199                       # Number of outstanding Icache misses that were squashed
system.switch_cpus1.fetch.rateDist::samples    261451265                       # Number of instructions fetched each cycle (Total)
system.switch_cpus1.fetch.rateDist::mean     0.668437                       # Number of instructions fetched each cycle (Total)
system.switch_cpus1.fetch.rateDist::stdev     2.028902                       # Number of instructions fetched each cycle (Total)
system.switch_cpus1.fetch.rateDist::underflows            0      0.00%      0.00% # Number of instructions fetched each cycle (Total)
system.switch_cpus1.fetch.rateDist::0       230129029     88.02%     88.02% # Number of instructions fetched each cycle (Total)
system.switch_cpus1.fetch.rateDist::1         2182907      0.83%     88.85% # Number of instructions fetched each cycle (Total)
system.switch_cpus1.fetch.rateDist::2         3964373      1.52%     90.37% # Number of instructions fetched each cycle (Total)
system.switch_cpus1.fetch.rateDist::3         3668946      1.40%     91.77% # Number of instructions fetched each cycle (Total)
system.switch_cpus1.fetch.rateDist::4         2331425      0.89%     92.67% # Number of instructions fetched each cycle (Total)
system.switch_cpus1.fetch.rateDist::5         1915458      0.73%     93.40% # Number of instructions fetched each cycle (Total)
system.switch_cpus1.fetch.rateDist::6         1098178      0.42%     93.82% # Number of instructions fetched each cycle (Total)
system.switch_cpus1.fetch.rateDist::7         1134528      0.43%     94.25% # Number of instructions fetched each cycle (Total)
system.switch_cpus1.fetch.rateDist::8        15026421      5.75%    100.00% # Number of instructions fetched each cycle (Total)
system.switch_cpus1.fetch.rateDist::overflows            0      0.00%    100.00% # Number of instructions fetched each cycle (Total)
system.switch_cpus1.fetch.rateDist::min_value            0                       # Number of instructions fetched each cycle (Total)
system.switch_cpus1.fetch.rateDist::max_value            8                       # Number of instructions fetched each cycle (Total)
system.switch_cpus1.fetch.rateDist::total    261451265                       # Number of instructions fetched each cycle (Total)
system.switch_cpus1.fetch.branchRate         0.090282                       # Number of branch fetches per cycle
system.switch_cpus1.fetch.rate               0.503351                       # Number of inst fetches per cycle
system.switch_cpus1.decode.IdleCycles       218893478                       # Number of cycles decode is idle
system.switch_cpus1.decode.BlockedCycles      6481496                       # Number of cycles decode is blocked
system.switch_cpus1.decode.RunCycles         31247910                       # Number of cycles decode is running
system.switch_cpus1.decode.UnblockCycles        54234                       # Number of cycles decode is unblocking
system.switch_cpus1.decode.SquashCycles       4774141                       # Number of cycles decode is squashing
system.switch_cpus1.decode.BranchResolved      4431087                       # Number of times decode resolved a branch
system.switch_cpus1.decode.BranchMispred          219                       # Number of times decode detected a branch misprediction
system.switch_cpus1.decode.DecodedInsts     174647830                       # Number of instructions handled by decode
system.switch_cpus1.decode.SquashedInsts         1246                       # Number of squashed instructions handled by decode
system.switch_cpus1.rename.SquashCycles       4774141                       # Number of cycles rename is squashing
system.switch_cpus1.rename.IdleCycles       219452871                       # Number of cycles rename is idle
system.switch_cpus1.rename.BlockCycles        1437163                       # Number of cycles rename is blocking
system.switch_cpus1.rename.serializeStallCycles      3756317                       # count of cycles rename stalled for serializing inst
system.switch_cpus1.rename.RunCycles         30707945                       # Number of cycles rename is running
system.switch_cpus1.rename.UnblockCycles      1322822                       # Number of cycles rename is unblocking
system.switch_cpus1.rename.RenamedInsts     174502270                       # Number of instructions processed by rename
system.switch_cpus1.rename.IQFullEvents        221928                       # Number of times rename has blocked due to IQ full
system.switch_cpus1.rename.LSQFullEvents       568201                       # Number of times rename has blocked due to LSQ full
system.switch_cpus1.rename.RenamedOperands    247512698                       # Number of destination operands rename has renamed
system.switch_cpus1.rename.RenameLookups    812863541                       # Number of register rename lookups that rename has made
system.switch_cpus1.rename.int_rename_lookups    812863541                       # Number of integer rename lookups
system.switch_cpus1.rename.CommittedMaps    203864564                       # Number of HB maps that are committed
system.switch_cpus1.rename.UndoneMaps        43648111                       # Number of HB maps that are undone due to squashing
system.switch_cpus1.rename.serializingInsts        40144                       # count of serializing insts renamed
system.switch_cpus1.rename.tempSerializingInsts        20072                       # count of temporary serializing insts renamed
system.switch_cpus1.rename.skidInsts          4872235                       # count of insts added to the skid buffer
system.switch_cpus1.memDep0.insertedLoads     16457996                       # Number of loads inserted to the mem dependence unit.
system.switch_cpus1.memDep0.insertedStores      8527626                       # Number of stores inserted to the mem dependence unit.
system.switch_cpus1.memDep0.conflictingLoads        98010                       # Number of conflicting loads.
system.switch_cpus1.memDep0.conflictingStores      1894346                       # Number of conflicting stores.
system.switch_cpus1.iq.iqInstsAdded         173364253                       # Number of instructions added to the IQ (excludes non-spec)
system.switch_cpus1.iq.iqNonSpecInstsAdded        40144                       # Number of non-speculative instructions added to the IQ
system.switch_cpus1.iq.iqInstsIssued        163764939                       # Number of instructions issued
system.switch_cpus1.iq.iqSquashedInstsIssued       137540                       # Number of squashed instructions issued
system.switch_cpus1.iq.iqSquashedInstsExamined     26069483                       # Number of squashed instructions iterated over during squash; mainly for profiling
system.switch_cpus1.iq.iqSquashedOperandsExamined     54769059                       # Number of squashed operands that are examined and possibly removed from graph
system.switch_cpus1.iq.issued_per_cycle::samples    261451265                       # Number of insts issued each cycle
system.switch_cpus1.iq.issued_per_cycle::mean     0.626369                       # Number of insts issued each cycle
system.switch_cpus1.iq.issued_per_cycle::stdev     1.299301                       # Number of insts issued each cycle
system.switch_cpus1.iq.issued_per_cycle::underflows            0      0.00%      0.00% # Number of insts issued each cycle
system.switch_cpus1.iq.issued_per_cycle::0    190822828     72.99%     72.99% # Number of insts issued each cycle
system.switch_cpus1.iq.issued_per_cycle::1     29897306     11.44%     84.42% # Number of insts issued each cycle
system.switch_cpus1.iq.issued_per_cycle::2     16089057      6.15%     90.57% # Number of insts issued each cycle
system.switch_cpus1.iq.issued_per_cycle::3      8148318      3.12%     93.69% # Number of insts issued each cycle
system.switch_cpus1.iq.issued_per_cycle::4      9716868      3.72%     97.41% # Number of insts issued each cycle
system.switch_cpus1.iq.issued_per_cycle::5      3142311      1.20%     98.61% # Number of insts issued each cycle
system.switch_cpus1.iq.issued_per_cycle::6      2945935      1.13%     99.74% # Number of insts issued each cycle
system.switch_cpus1.iq.issued_per_cycle::7       519208      0.20%     99.94% # Number of insts issued each cycle
system.switch_cpus1.iq.issued_per_cycle::8       169434      0.06%    100.00% # Number of insts issued each cycle
system.switch_cpus1.iq.issued_per_cycle::overflows            0      0.00%    100.00% # Number of insts issued each cycle
system.switch_cpus1.iq.issued_per_cycle::min_value            0                       # Number of insts issued each cycle
system.switch_cpus1.iq.issued_per_cycle::max_value            8                       # Number of insts issued each cycle
system.switch_cpus1.iq.issued_per_cycle::total    261451265                       # Number of insts issued each cycle
system.switch_cpus1.iq.fu_full::No_OpClass            0      0.00%      0.00% # attempts to use FU when none available
system.switch_cpus1.iq.fu_full::IntAlu         493037     59.64%     59.64% # attempts to use FU when none available
system.switch_cpus1.iq.fu_full::IntMult             0      0.00%     59.64% # attempts to use FU when none available
system.switch_cpus1.iq.fu_full::IntDiv              0      0.00%     59.64% # attempts to use FU when none available
system.switch_cpus1.iq.fu_full::FloatAdd            0      0.00%     59.64% # attempts to use FU when none available
system.switch_cpus1.iq.fu_full::FloatCmp            0      0.00%     59.64% # attempts to use FU when none available
system.switch_cpus1.iq.fu_full::FloatCvt            0      0.00%     59.64% # attempts to use FU when none available
system.switch_cpus1.iq.fu_full::FloatMult            0      0.00%     59.64% # attempts to use FU when none available
system.switch_cpus1.iq.fu_full::FloatDiv            0      0.00%     59.64% # attempts to use FU when none available
system.switch_cpus1.iq.fu_full::FloatSqrt            0      0.00%     59.64% # attempts to use FU when none available
system.switch_cpus1.iq.fu_full::SimdAdd             0      0.00%     59.64% # attempts to use FU when none available
system.switch_cpus1.iq.fu_full::SimdAddAcc            0      0.00%     59.64% # attempts to use FU when none available
system.switch_cpus1.iq.fu_full::SimdAlu             0      0.00%     59.64% # attempts to use FU when none available
system.switch_cpus1.iq.fu_full::SimdCmp             0      0.00%     59.64% # attempts to use FU when none available
system.switch_cpus1.iq.fu_full::SimdCvt             0      0.00%     59.64% # attempts to use FU when none available
system.switch_cpus1.iq.fu_full::SimdMisc            0      0.00%     59.64% # attempts to use FU when none available
system.switch_cpus1.iq.fu_full::SimdMult            0      0.00%     59.64% # attempts to use FU when none available
system.switch_cpus1.iq.fu_full::SimdMultAcc            0      0.00%     59.64% # attempts to use FU when none available
system.switch_cpus1.iq.fu_full::SimdShift            0      0.00%     59.64% # attempts to use FU when none available
system.switch_cpus1.iq.fu_full::SimdShiftAcc            0      0.00%     59.64% # attempts to use FU when none available
system.switch_cpus1.iq.fu_full::SimdSqrt            0      0.00%     59.64% # attempts to use FU when none available
system.switch_cpus1.iq.fu_full::SimdFloatAdd            0      0.00%     59.64% # attempts to use FU when none available
system.switch_cpus1.iq.fu_full::SimdFloatAlu            0      0.00%     59.64% # attempts to use FU when none available
system.switch_cpus1.iq.fu_full::SimdFloatCmp            0      0.00%     59.64% # attempts to use FU when none available
system.switch_cpus1.iq.fu_full::SimdFloatCvt            0      0.00%     59.64% # attempts to use FU when none available
system.switch_cpus1.iq.fu_full::SimdFloatDiv            0      0.00%     59.64% # attempts to use FU when none available
system.switch_cpus1.iq.fu_full::SimdFloatMisc            0      0.00%     59.64% # attempts to use FU when none available
system.switch_cpus1.iq.fu_full::SimdFloatMult            0      0.00%     59.64% # attempts to use FU when none available
system.switch_cpus1.iq.fu_full::SimdFloatMultAcc            0      0.00%     59.64% # attempts to use FU when none available
system.switch_cpus1.iq.fu_full::SimdFloatSqrt            0      0.00%     59.64% # attempts to use FU when none available
system.switch_cpus1.iq.fu_full::MemRead        169981     20.56%     80.20% # attempts to use FU when none available
system.switch_cpus1.iq.fu_full::MemWrite       163671     19.80%    100.00% # attempts to use FU when none available
system.switch_cpus1.iq.fu_full::IprAccess            0      0.00%    100.00% # attempts to use FU when none available
system.switch_cpus1.iq.fu_full::InstPrefetch            0      0.00%    100.00% # attempts to use FU when none available
system.switch_cpus1.iq.FU_type_0::No_OpClass            0      0.00%      0.00% # Type of FU issued
system.switch_cpus1.iq.FU_type_0::IntAlu    137714332     84.09%     84.09% # Type of FU issued
system.switch_cpus1.iq.FU_type_0::IntMult      2349347      1.43%     85.53% # Type of FU issued
system.switch_cpus1.iq.FU_type_0::IntDiv            0      0.00%     85.53% # Type of FU issued
system.switch_cpus1.iq.FU_type_0::FloatAdd            0      0.00%     85.53% # Type of FU issued
system.switch_cpus1.iq.FU_type_0::FloatCmp            0      0.00%     85.53% # Type of FU issued
system.switch_cpus1.iq.FU_type_0::FloatCvt            0      0.00%     85.53% # Type of FU issued
system.switch_cpus1.iq.FU_type_0::FloatMult            0      0.00%     85.53% # Type of FU issued
system.switch_cpus1.iq.FU_type_0::FloatDiv            0      0.00%     85.53% # Type of FU issued
system.switch_cpus1.iq.FU_type_0::FloatSqrt            0      0.00%     85.53% # Type of FU issued
system.switch_cpus1.iq.FU_type_0::SimdAdd            0      0.00%     85.53% # Type of FU issued
system.switch_cpus1.iq.FU_type_0::SimdAddAcc            0      0.00%     85.53% # Type of FU issued
system.switch_cpus1.iq.FU_type_0::SimdAlu            0      0.00%     85.53% # Type of FU issued
system.switch_cpus1.iq.FU_type_0::SimdCmp            0      0.00%     85.53% # Type of FU issued
system.switch_cpus1.iq.FU_type_0::SimdCvt            0      0.00%     85.53% # Type of FU issued
system.switch_cpus1.iq.FU_type_0::SimdMisc            0      0.00%     85.53% # Type of FU issued
system.switch_cpus1.iq.FU_type_0::SimdMult            0      0.00%     85.53% # Type of FU issued
system.switch_cpus1.iq.FU_type_0::SimdMultAcc            0      0.00%     85.53% # Type of FU issued
system.switch_cpus1.iq.FU_type_0::SimdShift            0      0.00%     85.53% # Type of FU issued
system.switch_cpus1.iq.FU_type_0::SimdShiftAcc            0      0.00%     85.53% # Type of FU issued
system.switch_cpus1.iq.FU_type_0::SimdSqrt            0      0.00%     85.53% # Type of FU issued
system.switch_cpus1.iq.FU_type_0::SimdFloatAdd            0      0.00%     85.53% # Type of FU issued
system.switch_cpus1.iq.FU_type_0::SimdFloatAlu            0      0.00%     85.53% # Type of FU issued
system.switch_cpus1.iq.FU_type_0::SimdFloatCmp            0      0.00%     85.53% # Type of FU issued
system.switch_cpus1.iq.FU_type_0::SimdFloatCvt            0      0.00%     85.53% # Type of FU issued
system.switch_cpus1.iq.FU_type_0::SimdFloatDiv            0      0.00%     85.53% # Type of FU issued
system.switch_cpus1.iq.FU_type_0::SimdFloatMisc        20072      0.01%     85.54% # Type of FU issued
system.switch_cpus1.iq.FU_type_0::SimdFloatMult            0      0.00%     85.54% # Type of FU issued
system.switch_cpus1.iq.FU_type_0::SimdFloatMultAcc            0      0.00%     85.54% # Type of FU issued
system.switch_cpus1.iq.FU_type_0::SimdFloatSqrt            0      0.00%     85.54% # Type of FU issued
system.switch_cpus1.iq.FU_type_0::MemRead     15180914      9.27%     94.81% # Type of FU issued
system.switch_cpus1.iq.FU_type_0::MemWrite      8500274      5.19%    100.00% # Type of FU issued
system.switch_cpus1.iq.FU_type_0::IprAccess            0      0.00%    100.00% # Type of FU issued
system.switch_cpus1.iq.FU_type_0::InstPrefetch            0      0.00%    100.00% # Type of FU issued
system.switch_cpus1.iq.FU_type_0::total     163764939                       # Type of FU issued
system.switch_cpus1.iq.rate                  0.579343                       # Inst issue rate
system.switch_cpus1.iq.fu_busy_cnt             826689                       # FU busy when requested
system.switch_cpus1.iq.fu_busy_rate          0.005048                       # FU busy rate (busy events/executed inst)
system.switch_cpus1.iq.int_inst_queue_reads    589945372                       # Number of integer instruction queue reads
system.switch_cpus1.iq.int_inst_queue_writes    199474129                       # Number of integer instruction queue writes
system.switch_cpus1.iq.int_inst_queue_wakeup_accesses    160230237                       # Number of integer instruction queue wakeup accesses
system.switch_cpus1.iq.fp_inst_queue_reads            0                       # Number of floating instruction queue reads
system.switch_cpus1.iq.fp_inst_queue_writes            0                       # Number of floating instruction queue writes
system.switch_cpus1.iq.fp_inst_queue_wakeup_accesses            0                       # Number of floating instruction queue wakeup accesses
system.switch_cpus1.iq.int_alu_accesses     164591628                       # Number of integer alu accesses
system.switch_cpus1.iq.fp_alu_accesses              0                       # Number of floating point alu accesses
system.switch_cpus1.iew.lsq.thread0.forwLoads       318119                       # Number of loads that had data forwarded from stores
system.switch_cpus1.iew.lsq.thread0.invAddrLoads            0                       # Number of loads ignored due to an invalid address
system.switch_cpus1.iew.lsq.thread0.squashedLoads      3168343                       # Number of loads squashed
system.switch_cpus1.iew.lsq.thread0.ignoredResponses            4                       # Number of memory responses ignored because the instruction is squashed
system.switch_cpus1.iew.lsq.thread0.memOrderViolation          249                       # Number of memory ordering violations
system.switch_cpus1.iew.lsq.thread0.squashedStores       108918                       # Number of stores squashed
system.switch_cpus1.iew.lsq.thread0.invAddrSwpfs            0                       # Number of software prefetches ignored due to an invalid address
system.switch_cpus1.iew.lsq.thread0.blockedLoads            0                       # Number of blocked loads due to partial load-store forwarding
system.switch_cpus1.iew.lsq.thread0.rescheduledLoads            0                       # Number of loads that were rescheduled
system.switch_cpus1.iew.lsq.thread0.cacheBlocked            0                       # Number of times an access to memory failed due to the cache being blocked
system.switch_cpus1.iew.iewIdleCycles               0                       # Number of cycles IEW is idle
system.switch_cpus1.iew.iewSquashCycles       4774141                       # Number of cycles IEW is squashing
system.switch_cpus1.iew.iewBlockCycles         972072                       # Number of cycles IEW is blocking
system.switch_cpus1.iew.iewUnblockCycles       135584                       # Number of cycles IEW is unblocking
system.switch_cpus1.iew.iewDispatchedInsts    173404397                       # Number of instructions dispatched to IQ
system.switch_cpus1.iew.iewDispSquashedInsts         9947                       # Number of squashed instructions skipped by dispatch
system.switch_cpus1.iew.iewDispLoadInsts     16457996                       # Number of dispatched load instructions
system.switch_cpus1.iew.iewDispStoreInsts      8527626                       # Number of dispatched store instructions
system.switch_cpus1.iew.iewDispNonSpecInsts        20072                       # Number of dispatched non-speculative instructions
system.switch_cpus1.iew.iewIQFullEvents        117594                       # Number of times the IQ has become full, causing a stall
system.switch_cpus1.iew.iewLSQFullEvents            0                       # Number of times the LSQ has become full, causing a stall
system.switch_cpus1.iew.memOrderViolationEvents          249                       # Number of memory order violations
system.switch_cpus1.iew.predictedTakenIncorrect      1254377                       # Number of branches that were predicted taken incorrectly
system.switch_cpus1.iew.predictedNotTakenIncorrect      1304628                       # Number of branches that were predicted not taken incorrectly
system.switch_cpus1.iew.branchMispredicts      2559005                       # Number of branch mispredicts detected at execute
system.switch_cpus1.iew.iewExecutedInsts    161408451                       # Number of executed instructions
system.switch_cpus1.iew.iewExecLoadInsts     14647440                       # Number of load instructions executed
system.switch_cpus1.iew.iewExecSquashedInsts      2356488                       # Number of squashed instructions skipped in execute
system.switch_cpus1.iew.exec_swp                    0                       # number of swp insts executed
system.switch_cpus1.iew.exec_nop                    0                       # number of nop insts executed
system.switch_cpus1.iew.exec_refs            23147525                       # number of memory reference insts executed
system.switch_cpus1.iew.exec_branches        22787720                       # Number of branches executed
system.switch_cpus1.iew.exec_stores           8500085                       # Number of stores executed
system.switch_cpus1.iew.exec_rate            0.571007                       # Inst execution rate
system.switch_cpus1.iew.wb_sent             160230273                       # cumulative count of insts sent to commit
system.switch_cpus1.iew.wb_count            160230237                       # cumulative count of insts written-back
system.switch_cpus1.iew.wb_producers         92455948                       # num instructions producing a value
system.switch_cpus1.iew.wb_consumers        257528647                       # num instructions consuming a value
system.switch_cpus1.iew.wb_penalized                0                       # number of instrctions required to write to 'other' IQ
system.switch_cpus1.iew.wb_rate              0.566839                       # insts written-back per cycle
system.switch_cpus1.iew.wb_fanout            0.359012                       # average fanout of values written-back
system.switch_cpus1.iew.wb_penalized_rate            0                       # fraction of instructions written-back that wrote to 'other' IQ
system.switch_cpus1.commit.commitCommittedInsts    118730541                       # The number of committed instructions
system.switch_cpus1.commit.commitCommittedOps    146191798                       # The number of committed instructions
system.switch_cpus1.commit.commitSquashedInsts     27213000                       # The number of squashed insts skipped by commit
system.switch_cpus1.commit.commitNonSpecStalls        40144                       # The number of times commit has been forced to stall to communicate backwards
system.switch_cpus1.commit.branchMispredicts      2377216                       # The number of times a branch was mispredicted
system.switch_cpus1.commit.committed_per_cycle::samples    256677124                       # Number of insts commited each cycle
system.switch_cpus1.commit.committed_per_cycle::mean     0.569555                       # Number of insts commited each cycle
system.switch_cpus1.commit.committed_per_cycle::stdev     1.369235                       # Number of insts commited each cycle
system.switch_cpus1.commit.committed_per_cycle::underflows            0      0.00%      0.00% # Number of insts commited each cycle
system.switch_cpus1.commit.committed_per_cycle::0    195109488     76.01%     76.01% # Number of insts commited each cycle
system.switch_cpus1.commit.committed_per_cycle::1     28343428     11.04%     87.06% # Number of insts commited each cycle
system.switch_cpus1.commit.committed_per_cycle::2     14700038      5.73%     92.78% # Number of insts commited each cycle
system.switch_cpus1.commit.committed_per_cycle::3      4725731      1.84%     94.62% # Number of insts commited each cycle
system.switch_cpus1.commit.committed_per_cycle::4      6489375      2.53%     97.15% # Number of insts commited each cycle
system.switch_cpus1.commit.committed_per_cycle::5      2178924      0.85%     98.00% # Number of insts commited each cycle
system.switch_cpus1.commit.committed_per_cycle::6      1254441      0.49%     98.49% # Number of insts commited each cycle
system.switch_cpus1.commit.committed_per_cycle::7      1113257      0.43%     98.92% # Number of insts commited each cycle
system.switch_cpus1.commit.committed_per_cycle::8      2762442      1.08%    100.00% # Number of insts commited each cycle
system.switch_cpus1.commit.committed_per_cycle::overflows            0      0.00%    100.00% # Number of insts commited each cycle
system.switch_cpus1.commit.committed_per_cycle::min_value            0                       # Number of insts commited each cycle
system.switch_cpus1.commit.committed_per_cycle::max_value            8                       # Number of insts commited each cycle
system.switch_cpus1.commit.committed_per_cycle::total    256677124                       # Number of insts commited each cycle
system.switch_cpus1.commit.committedInsts    118730541                       # Number of instructions committed
system.switch_cpus1.commit.committedOps     146191798                       # Number of ops (including micro ops) committed
system.switch_cpus1.commit.swp_count                0                       # Number of s/w prefetches committed
system.switch_cpus1.commit.refs              21708361                       # Number of memory references committed
system.switch_cpus1.commit.loads             13289653                       # Number of loads committed
system.switch_cpus1.commit.membars              20072                       # Number of memory barriers committed
system.switch_cpus1.commit.branches          21101426                       # Number of branches committed
[...]
system.cpu2.icache.overall_accesses::switch_cpus2.inst     13364443                       # number of overall (read+write) accesses
system.cpu2.icache.overall_accesses::total     13364443                       # number of overall (read+write) accesses
system.cpu2.icache.ReadReq_miss_rate::switch_cpus2.inst     0.000001                       # miss rate for ReadReq accesses
system.cpu2.icache.ReadReq_miss_rate::total     0.000001                       # miss rate for ReadReq accesses
system.cpu2.icache.demand_miss_rate::switch_cpus2.inst     0.000001                       # miss rate for demand accesses
system.cpu2.icache.demand_miss_rate::total     0.000001                       # miss rate for demand accesses
system.cpu2.icache.overall_miss_rate::switch_cpus2.inst     0.000001                       # miss rate for overall accesses
system.cpu2.icache.overall_miss_rate::total     0.000001                       # miss rate for overall accesses
system.cpu2.icache.ReadReq_avg_miss_latency::switch_cpus2.inst 241756.090909                       # average ReadReq miss latency
system.cpu2.icache.ReadReq_avg_miss_latency::total 241756.090909                       # average ReadReq miss latency
system.cpu2.icache.demand_avg_miss_latency::switch_cpus2.inst 241756.090909                       # average overall miss latency
system.cpu2.icache.demand_avg_miss_latency::total 241756.090909                       # average overall miss latency
system.cpu2.icache.overall_avg_miss_latency::switch_cpus2.inst 241756.090909                       # average overall miss latency
system.cpu2.icache.overall_avg_miss_latency::total 241756.090909                       # average overall miss latency
system.cpu2.icache.blocked_cycles::no_mshrs            0                       # number of cycles access was blocked
system.cpu2.icache.blocked_cycles::no_targets            0                       # number of cycles access was blocked
system.cpu2.icache.blocked::no_mshrs                0                       # number of cycles access was blocked
system.cpu2.icache.blocked::no_targets              0                       # number of cycles access was blocked
system.cpu2.icache.avg_blocked_cycles::no_mshrs          nan                       # average number of cycles each access was blocked
system.cpu2.icache.avg_blocked_cycles::no_targets          nan                       # average number of cycles each access was blocked
system.cpu2.icache.fast_writes                      0                       # number of fast writes performed
system.cpu2.icache.cache_copies                     0                       # number of cache copies performed
system.cpu2.icache.ReadReq_mshr_hits::switch_cpus2.inst            1                       # number of ReadReq MSHR hits
system.cpu2.icache.ReadReq_mshr_hits::total            1                       # number of ReadReq MSHR hits
system.cpu2.icache.demand_mshr_hits::switch_cpus2.inst            1                       # number of demand (read+write) MSHR hits
system.cpu2.icache.demand_mshr_hits::total            1                       # number of demand (read+write) MSHR hits
system.cpu2.icache.overall_mshr_hits::switch_cpus2.inst            1                       # number of overall MSHR hits
system.cpu2.icache.overall_mshr_hits::total            1                       # number of overall MSHR hits
system.cpu2.icache.ReadReq_mshr_misses::switch_cpus2.inst           10                       # number of ReadReq MSHR misses
system.cpu2.icache.ReadReq_mshr_misses::total           10                       # number of ReadReq MSHR misses
system.cpu2.icache.demand_mshr_misses::switch_cpus2.inst           10                       # number of demand (read+write) MSHR misses
system.cpu2.icache.demand_mshr_misses::total           10                       # number of demand (read+write) MSHR misses
system.cpu2.icache.overall_mshr_misses::switch_cpus2.inst           10                       # number of overall MSHR misses
system.cpu2.icache.overall_mshr_misses::total           10                       # number of overall MSHR misses
system.cpu2.icache.ReadReq_mshr_miss_latency::switch_cpus2.inst      2400747                       # number of ReadReq MSHR miss cycles
system.cpu2.icache.ReadReq_mshr_miss_latency::total      2400747                       # number of ReadReq MSHR miss cycles
system.cpu2.icache.demand_mshr_miss_latency::switch_cpus2.inst      2400747                       # number of demand (read+write) MSHR miss cycles
system.cpu2.icache.demand_mshr_miss_latency::total      2400747                       # number of demand (read+write) MSHR miss cycles
system.cpu2.icache.overall_mshr_miss_latency::switch_cpus2.inst      2400747                       # number of overall MSHR miss cycles
system.cpu2.icache.overall_mshr_miss_latency::total      2400747                       # number of overall MSHR miss cycles
system.cpu2.icache.ReadReq_mshr_miss_rate::switch_cpus2.inst     0.000001                       # mshr miss rate for ReadReq accesses
system.cpu2.icache.ReadReq_mshr_miss_rate::total     0.000001                       # mshr miss rate for ReadReq accesses
system.cpu2.icache.demand_mshr_miss_rate::switch_cpus2.inst     0.000001                       # mshr miss rate for demand accesses
system.cpu2.icache.demand_mshr_miss_rate::total     0.000001                       # mshr miss rate for demand accesses
system.cpu2.icache.overall_mshr_miss_rate::switch_cpus2.inst     0.000001                       # mshr miss rate for overall accesses
system.cpu2.icache.overall_mshr_miss_rate::total     0.000001                       # mshr miss rate for overall accesses
system.cpu2.icache.ReadReq_avg_mshr_miss_latency::switch_cpus2.inst 240074.700000                       # average ReadReq mshr miss latency
system.cpu2.icache.ReadReq_avg_mshr_miss_latency::total 240074.700000                       # average ReadReq mshr miss latency
system.cpu2.icache.demand_avg_mshr_miss_latency::switch_cpus2.inst 240074.700000                       # average overall mshr miss latency
system.cpu2.icache.demand_avg_mshr_miss_latency::total 240074.700000                       # average overall mshr miss latency
system.cpu2.icache.overall_avg_mshr_miss_latency::switch_cpus2.inst 240074.700000                       # average overall mshr miss latency
system.cpu2.icache.overall_avg_mshr_miss_latency::total 240074.700000                       # average overall mshr miss latency
system.cpu2.icache.no_allocate_misses               0                       # Number of misses that were no-allocate
system.cpu2.dcache.replacements                110474                       # number of replacements
system.cpu2.dcache.tagsinuse                      256                       # Cycle average of tags in use
system.cpu2.dcache.total_refs               206057359                       # Total number of references to valid blocks.
system.cpu2.dcache.sampled_refs                110730                       # Sample count of references to valid blocks.
system.cpu2.dcache.avg_refs               1860.899115                       # Average number of references to valid blocks.
system.cpu2.dcache.warmup_cycle                     0                       # Cycle when the warmup percentage was hit.
system.cpu2.dcache.occ_blocks::switch_cpus2.data   234.607956                       # Average occupied blocks per requestor
system.cpu2.dcache.occ_blocks::cpu2.data    21.392044                       # Average occupied blocks per requestor
system.cpu2.dcache.occ_percent::switch_cpus2.data     0.916437                       # Average percentage of cache occupancy
system.cpu2.dcache.occ_percent::cpu2.data     0.083563                       # Average percentage of cache occupancy
system.cpu2.dcache.occ_percent::total               1                       # Average percentage of cache occupancy
system.cpu2.dcache.ReadReq_hits::switch_cpus2.data     11863513                       # number of ReadReq hits
system.cpu2.dcache.ReadReq_hits::total       11863513                       # number of ReadReq hits
system.cpu2.dcache.WriteReq_hits::switch_cpus2.data      8776594                       # number of WriteReq hits
system.cpu2.dcache.WriteReq_hits::total       8776594                       # number of WriteReq hits
system.cpu2.dcache.LoadLockedReq_hits::switch_cpus2.data        18483                       # number of LoadLockedReq hits
system.cpu2.dcache.LoadLockedReq_hits::total        18483                       # number of LoadLockedReq hits
system.cpu2.dcache.StoreCondReq_hits::switch_cpus2.data        18172                       # number of StoreCondReq hits
system.cpu2.dcache.StoreCondReq_hits::total        18172                       # number of StoreCondReq hits
system.cpu2.dcache.demand_hits::switch_cpus2.data     20640107                       # number of demand (read+write) hits
system.cpu2.dcache.demand_hits::total        20640107                       # number of demand (read+write) hits
system.cpu2.dcache.overall_hits::switch_cpus2.data     20640107                       # number of overall hits
system.cpu2.dcache.overall_hits::total       20640107                       # number of overall hits
system.cpu2.dcache.ReadReq_misses::switch_cpus2.data       468505                       # number of ReadReq misses
system.cpu2.dcache.ReadReq_misses::total       468505                       # number of ReadReq misses
system.cpu2.dcache.WriteReq_misses::switch_cpus2.data           90                       # number of WriteReq misses
system.cpu2.dcache.WriteReq_misses::total           90                       # number of WriteReq misses
system.cpu2.dcache.demand_misses::switch_cpus2.data       468595                       # number of demand (read+write) misses
system.cpu2.dcache.demand_misses::total        468595                       # number of demand (read+write) misses
system.cpu2.dcache.overall_misses::switch_cpus2.data       468595                       # number of overall misses
system.cpu2.dcache.overall_misses::total       468595                       # number of overall misses
system.cpu2.dcache.ReadReq_miss_latency::switch_cpus2.data  47689729383                       # number of ReadReq miss cycles
system.cpu2.dcache.ReadReq_miss_latency::total  47689729383                       # number of ReadReq miss cycles
system.cpu2.dcache.WriteReq_miss_latency::switch_cpus2.data     11332128                       # number of WriteReq miss cycles
system.cpu2.dcache.WriteReq_miss_latency::total     11332128                       # number of WriteReq miss cycles
system.cpu2.dcache.demand_miss_latency::switch_cpus2.data  47701061511                       # number of demand (read+write) miss cycles
system.cpu2.dcache.demand_miss_latency::total  47701061511                       # number of demand (read+write) miss cycles
system.cpu2.dcache.overall_miss_latency::switch_cpus2.data  47701061511                       # number of overall miss cycles
system.cpu2.dcache.overall_miss_latency::total  47701061511                       # number of overall miss cycles
system.cpu2.dcache.ReadReq_accesses::switch_cpus2.data     12332018                       # number of ReadReq accesses(hits+misses)
system.cpu2.dcache.ReadReq_accesses::total     12332018                       # number of ReadReq accesses(hits+misses)
system.cpu2.dcache.WriteReq_accesses::switch_cpus2.data      8776684                       # number of WriteReq accesses(hits+misses)
system.cpu2.dcache.WriteReq_accesses::total      8776684                       # number of WriteReq accesses(hits+misses)
system.cpu2.dcache.LoadLockedReq_accesses::switch_cpus2.data        18483                       # number of LoadLockedReq accesses(hits+misses)
system.cpu2.dcache.LoadLockedReq_accesses::total        18483                       # number of LoadLockedReq accesses(hits+misses)
system.cpu2.dcache.StoreCondReq_accesses::switch_cpus2.data        18172                       # number of StoreCondReq accesses(hits+misses)
system.cpu2.dcache.StoreCondReq_accesses::total        18172                       # number of StoreCondReq accesses(hits+misses)
system.cpu2.dcache.demand_accesses::switch_cpus2.data     21108702                       # number of demand (read+write) accesses
system.cpu2.dcache.demand_accesses::total     21108702                       # number of demand (read+write) accesses
system.cpu2.dcache.overall_accesses::switch_cpus2.data     21108702                       # number of overall (read+write) accesses
system.cpu2.dcache.overall_accesses::total     21108702                       # number of overall (read+write) accesses
system.cpu2.dcache.ReadReq_miss_rate::switch_cpus2.data     0.037991                       # miss rate for ReadReq accesses
system.cpu2.dcache.ReadReq_miss_rate::total     0.037991                       # miss rate for ReadReq accesses
system.cpu2.dcache.WriteReq_miss_rate::switch_cpus2.data     0.000010                       # miss rate for WriteReq accesses
system.cpu2.dcache.WriteReq_miss_rate::total     0.000010                       # miss rate for WriteReq accesses
system.cpu2.dcache.demand_miss_rate::switch_cpus2.data     0.022199                       # miss rate for demand accesses
system.cpu2.dcache.demand_miss_rate::total     0.022199                       # miss rate for demand accesses
system.cpu2.dcache.overall_miss_rate::switch_cpus2.data     0.022199                       # miss rate for overall accesses
system.cpu2.dcache.overall_miss_rate::total     0.022199                       # miss rate for overall accesses
system.cpu2.dcache.ReadReq_avg_miss_latency::switch_cpus2.data 101791.292266                       # average ReadReq miss latency
system.cpu2.dcache.ReadReq_avg_miss_latency::total 101791.292266                       # average ReadReq miss latency
system.cpu2.dcache.WriteReq_avg_miss_latency::switch_cpus2.data 125912.533333                       # average WriteReq miss latency
system.cpu2.dcache.WriteReq_avg_miss_latency::total 125912.533333                       # average WriteReq miss latency
system.cpu2.dcache.demand_avg_miss_latency::switch_cpus2.data 101795.925076                       # average overall miss latency
system.cpu2.dcache.demand_avg_miss_latency::total 101795.925076                       # average overall miss latency
system.cpu2.dcache.overall_avg_miss_latency::switch_cpus2.data 101795.925076                       # average overall miss latency
system.cpu2.dcache.overall_avg_miss_latency::total 101795.925076                       # average overall miss latency
system.cpu2.dcache.blocked_cycles::no_mshrs            0                       # number of cycles access was blocked
system.cpu2.dcache.blocked_cycles::no_targets            0                       # number of cycles access was blocked
system.cpu2.dcache.blocked::no_mshrs                0                       # number of cycles access was blocked
system.cpu2.dcache.blocked::no_targets              0                       # number of cycles access was blocked
system.cpu2.dcache.avg_blocked_cycles::no_mshrs          nan                       # average number of cycles each access was blocked
system.cpu2.dcache.avg_blocked_cycles::no_targets          nan                       # average number of cycles each access was blocked
system.cpu2.dcache.fast_writes                      0                       # number of fast writes performed
system.cpu2.dcache.cache_copies                     0                       # number of cache copies performed
system.cpu2.dcache.writebacks::writebacks        20986                       # number of writebacks
system.cpu2.dcache.writebacks::total            20986                       # number of writebacks
system.cpu2.dcache.ReadReq_mshr_hits::switch_cpus2.data       358031                       # number of ReadReq MSHR hits
system.cpu2.dcache.ReadReq_mshr_hits::total       358031                       # number of ReadReq MSHR hits
system.cpu2.dcache.WriteReq_mshr_hits::switch_cpus2.data           90                       # number of WriteReq MSHR hits
system.cpu2.dcache.WriteReq_mshr_hits::total           90                       # number of WriteReq MSHR hits
system.cpu2.dcache.demand_mshr_hits::switch_cpus2.data       358121                       # number of demand (read+write) MSHR hits
system.cpu2.dcache.demand_mshr_hits::total       358121                       # number of demand (read+write) MSHR hits
system.cpu2.dcache.overall_mshr_hits::switch_cpus2.data       358121                       # number of overall MSHR hits
system.cpu2.dcache.overall_mshr_hits::total       358121                       # number of overall MSHR hits
system.cpu2.dcache.ReadReq_mshr_misses::switch_cpus2.data       110474                       # number of ReadReq MSHR misses
system.cpu2.dcache.ReadReq_mshr_misses::total       110474                       # number of ReadReq MSHR misses
system.cpu2.dcache.demand_mshr_misses::switch_cpus2.data       110474                       # number of demand (read+write) MSHR misses
system.cpu2.dcache.demand_mshr_misses::total       110474                       # number of demand (read+write) MSHR misses
system.cpu2.dcache.overall_mshr_misses::switch_cpus2.data       110474                       # number of overall MSHR misses
system.cpu2.dcache.overall_mshr_misses::total       110474                       # number of overall MSHR misses
system.cpu2.dcache.ReadReq_mshr_miss_latency::switch_cpus2.data  10668016260                       # number of ReadReq MSHR miss cycles
system.cpu2.dcache.ReadReq_mshr_miss_latency::total  10668016260                       # number of ReadReq MSHR miss cycles
system.cpu2.dcache.demand_mshr_miss_latency::switch_cpus2.data  10668016260                       # number of demand (read+write) MSHR miss cycles
system.cpu2.dcache.demand_mshr_miss_latency::total  10668016260                       # number of demand (read+write) MSHR miss cycles
system.cpu2.dcache.overall_mshr_miss_latency::switch_cpus2.data  10668016260                       # number of overall MSHR miss cycles
system.cpu2.dcache.overall_mshr_miss_latency::total  10668016260                       # number of overall MSHR miss cycles
system.cpu2.dcache.ReadReq_mshr_miss_rate::switch_cpus2.data     0.008958                       # mshr miss rate for ReadReq accesses
system.cpu2.dcache.ReadReq_mshr_miss_rate::total     0.008958                       # mshr miss rate for ReadReq accesses
system.cpu2.dcache.demand_mshr_miss_rate::switch_cpus2.data     0.005234                       # mshr miss rate for demand accesses
system.cpu2.dcache.demand_mshr_miss_rate::total     0.005234                       # mshr miss rate for demand accesses
system.cpu2.dcache.overall_mshr_miss_rate::switch_cpus2.data     0.005234                       # mshr miss rate for overall accesses
system.cpu2.dcache.overall_mshr_miss_rate::total     0.005234                       # mshr miss rate for overall accesses
system.cpu2.dcache.ReadReq_avg_mshr_miss_latency::switch_cpus2.data 96565.854952                       # average ReadReq mshr miss latency
system.cpu2.dcache.ReadReq_avg_mshr_miss_latency::total 96565.854952                       # average ReadReq mshr miss latency
system.cpu2.dcache.demand_avg_mshr_miss_latency::switch_cpus2.data 96565.854952                       # average overall mshr miss latency
system.cpu2.dcache.demand_avg_mshr_miss_latency::total 96565.854952                       # average overall mshr miss latency
system.cpu2.dcache.overall_avg_mshr_miss_latency::switch_cpus2.data 96565.854952                       # average overall mshr miss latency
system.cpu2.dcache.overall_avg_mshr_miss_latency::total 96565.854952                       # average overall mshr miss latency
system.cpu2.dcache.no_allocate_misses               0                       # Number of misses that were no-allocate

---------- End Simulation Statistics   ----------
