
---------- Begin Simulation Statistics ----------
sim_seconds                                  0.003339                       # Number of seconds simulated
sim_ticks                                  3339317652                       # Number of ticks simulated
final_tick                               574870355328                       # Number of ticks from beginning of simulation (restored from checkpoints and never reset)
sim_freq                                 1000000000000                       # Frequency of simulated ticks
host_inst_rate                                 401288                       # Simulator instruction rate (inst/s)
host_op_rate                                   516400                       # Simulator op (including micro ops) rate (op/s)
host_tick_rate                                 311918                       # Simulator tick rate (ticks/s)
host_mem_usage                               16923268                       # Number of bytes of host memory used
host_seconds                                 10705.75                       # Real time elapsed on the host
sim_insts                                  4296090312                       # Number of instructions simulated
sim_ops                                    5528450274                       # Number of ops (including micro ops) simulated
system.physmem.bytes_read::switch_cpus0.inst         5248                       # Number of bytes read from this memory
system.physmem.bytes_read::switch_cpus0.data       183680                       # Number of bytes read from this memory
system.physmem.bytes_read::switch_cpus1.inst         5504                       # Number of bytes read from this memory
system.physmem.bytes_read::switch_cpus1.data        77568                       # Number of bytes read from this memory
system.physmem.bytes_read::switch_cpus2.inst         4864                       # Number of bytes read from this memory
system.physmem.bytes_read::switch_cpus2.data        65920                       # Number of bytes read from this memory
system.physmem.bytes_read::switch_cpus3.inst         5120                       # Number of bytes read from this memory
system.physmem.bytes_read::switch_cpus3.data       112256                       # Number of bytes read from this memory
system.physmem.bytes_read::total               460160                       # Number of bytes read from this memory
system.physmem.bytes_inst_read::switch_cpus0.inst         5248                       # Number of instructions bytes read from this memory
system.physmem.bytes_inst_read::switch_cpus1.inst         5504                       # Number of instructions bytes read from this memory
system.physmem.bytes_inst_read::switch_cpus2.inst         4864                       # Number of instructions bytes read from this memory
system.physmem.bytes_inst_read::switch_cpus3.inst         5120                       # Number of instructions bytes read from this memory
system.physmem.bytes_inst_read::total           20736                       # Number of instructions bytes read from this memory
system.physmem.bytes_written::writebacks       208384                       # Number of bytes written to this memory
system.physmem.bytes_written::total            208384                       # Number of bytes written to this memory
system.physmem.num_reads::switch_cpus0.inst           41                       # Number of read requests responded to by this memory
system.physmem.num_reads::switch_cpus0.data         1435                       # Number of read requests responded to by this memory
system.physmem.num_reads::switch_cpus1.inst           43                       # Number of read requests responded to by this memory
system.physmem.num_reads::switch_cpus1.data          606                       # Number of read requests responded to by this memory
system.physmem.num_reads::switch_cpus2.inst           38                       # Number of read requests responded to by this memory
system.physmem.num_reads::switch_cpus2.data          515                       # Number of read requests responded to by this memory
system.physmem.num_reads::switch_cpus3.inst           40                       # Number of read requests responded to by this memory
system.physmem.num_reads::switch_cpus3.data          877                       # Number of read requests responded to by this memory
system.physmem.num_reads::total                  3595                       # Number of read requests responded to by this memory
system.physmem.num_writes::writebacks            1628                       # Number of write requests responded to by this memory
system.physmem.num_writes::functional               0                       # Number of write requests responded to by this memory
system.physmem.num_writes::interrupt                0                       # Number of write requests responded to by this memory
system.physmem.num_writes::switch_cpus0.dtb.walker            0                       # Number of write requests responded to by this memory
system.physmem.num_writes::switch_cpus0.itb.walker            0                       # Number of write requests responded to by this memory
system.physmem.num_writes::switch_cpus0.inst            0                       # Number of write requests responded to by this memory
system.physmem.num_writes::switch_cpus0.data            0                       # Number of write requests responded to by this memory
system.physmem.num_writes::switch_cpus1.dtb.walker            0                       # Number of write requests responded to by this memory
system.physmem.num_writes::switch_cpus1.itb.walker            0                       # Number of write requests responded to by this memory
system.physmem.num_writes::switch_cpus1.inst            0                       # Number of write requests responded to by this memory
system.physmem.num_writes::switch_cpus1.data            0                       # Number of write requests responded to by this memory
system.physmem.num_writes::switch_cpus2.dtb.walker            0                       # Number of write requests responded to by this memory
system.physmem.num_writes::switch_cpus2.itb.walker            0                       # Number of write requests responded to by this memory
system.physmem.num_writes::switch_cpus2.inst            0                       # Number of write requests responded to by this memory
system.physmem.num_writes::switch_cpus2.data            0                       # Number of write requests responded to by this memory
system.physmem.num_writes::switch_cpus3.dtb.walker            0                       # Number of write requests responded to by this memory
system.physmem.num_writes::switch_cpus3.itb.walker            0                       # Number of write requests responded to by this memory
system.physmem.num_writes::switch_cpus3.inst            0                       # Number of write requests responded to by this memory
system.physmem.num_writes::switch_cpus3.data            0                       # Number of write requests responded to by this memory
system.physmem.num_writes::cpu0.dtb.walker            0                       # Number of write requests responded to by this memory
system.physmem.num_writes::cpu0.itb.walker            0                       # Number of write requests responded to by this memory
system.physmem.num_writes::cpu0.inst                0                       # Number of write requests responded to by this memory
system.physmem.num_writes::cpu0.data                0                       # Number of write requests responded to by this memory
system.physmem.num_writes::cpu1.dtb.walker            0                       # Number of write requests responded to by this memory
system.physmem.num_writes::cpu1.itb.walker            0                       # Number of write requests responded to by this memory
system.physmem.num_writes::cpu1.inst                0                       # Number of write requests responded to by this memory
system.physmem.num_writes::cpu1.data                0                       # Number of write requests responded to by this memory
system.physmem.num_writes::cpu2.dtb.walker            0                       # Number of write requests responded to by this memory
system.physmem.num_writes::cpu2.itb.walker            0                       # Number of write requests responded to by this memory
system.physmem.num_writes::cpu2.inst                0                       # Number of write requests responded to by this memory
system.physmem.num_writes::cpu2.data                0                       # Number of write requests responded to by this memory
system.physmem.num_writes::cpu3.dtb.walker            0                       # Number of write requests responded to by this memory
system.physmem.num_writes::cpu3.itb.walker            0                       # Number of write requests responded to by this memory
system.physmem.num_writes::cpu3.inst                0                       # Number of write requests responded to by this memory
system.physmem.num_writes::cpu3.data                0                       # Number of write requests responded to by this memory
system.physmem.num_writes::total                 1628                       # Number of write requests responded to by this memory
system.physmem.bw_read::switch_cpus0.inst      1571579                       # Total read bandwidth from this memory (bytes/s)
system.physmem.bw_read::switch_cpus0.data     55005249                       # Total read bandwidth from this memory (bytes/s)
system.physmem.bw_read::switch_cpus1.inst      1648241                       # Total read bandwidth from this memory (bytes/s)
system.physmem.bw_read::switch_cpus1.data     23228698                       # Total read bandwidth from this memory (bytes/s)
system.physmem.bw_read::switch_cpus2.inst      1456585                       # Total read bandwidth from this memory (bytes/s)
system.physmem.bw_read::switch_cpus2.data     19740560                       # Total read bandwidth from this memory (bytes/s)
system.physmem.bw_read::switch_cpus3.inst      1533247                       # Total read bandwidth from this memory (bytes/s)
system.physmem.bw_read::switch_cpus3.data     33616449                       # Total read bandwidth from this memory (bytes/s)
system.physmem.bw_read::total               137800607                       # Total read bandwidth from this memory (bytes/s)
system.physmem.bw_inst_read::switch_cpus0.inst      1571579                       # Instruction read bandwidth from this memory (bytes/s)
system.physmem.bw_inst_read::switch_cpus1.inst      1648241                       # Instruction read bandwidth from this memory (bytes/s)
system.physmem.bw_inst_read::switch_cpus2.inst      1456585                       # Instruction read bandwidth from this memory (bytes/s)
system.physmem.bw_inst_read::switch_cpus3.inst      1533247                       # Instruction read bandwidth from this memory (bytes/s)
system.physmem.bw_inst_read::total            6209652                       # Instruction read bandwidth from this memory (bytes/s)
system.physmem.bw_write::writebacks          62403168                       # Write bandwidth from this memory (bytes/s)
system.physmem.bw_write::total               62403168                       # Write bandwidth from this memory (bytes/s)
system.physmem.bw_total::writebacks          62403168                       # Total bandwidth to/from this memory (bytes/s)
system.physmem.bw_total::switch_cpus0.inst      1571579                       # Total bandwidth to/from this memory (bytes/s)
system.physmem.bw_total::switch_cpus0.data     55005249                       # Total bandwidth to/from this memory (bytes/s)
system.physmem.bw_total::switch_cpus1.inst      1648241                       # Total bandwidth to/from this memory (bytes/s)
system.physmem.bw_total::switch_cpus1.data     23228698                       # Total bandwidth to/from this memory (bytes/s)
system.physmem.bw_total::switch_cpus2.inst      1456585                       # Total bandwidth to/from this memory (bytes/s)
system.physmem.bw_total::switch_cpus2.data     19740560                       # Total bandwidth to/from this memory (bytes/s)
system.physmem.bw_total::switch_cpus3.inst      1533247                       # Total bandwidth to/from this memory (bytes/s)
system.physmem.bw_total::switch_cpus3.data     33616449                       # Total bandwidth to/from this memory (bytes/s)
system.physmem.bw_total::total              200203775                       # Total bandwidth to/from this memory (bytes/s)
system.switch_cpus0.dtb.inst_hits                   0                       # ITB inst hits
system.switch_cpus0.dtb.inst_misses                 0                       # ITB inst misses
system.switch_cpus0.dtb.read_hits                   0                       # DTB read hits
system.switch_cpus0.dtb.read_misses                 0                       # DTB read misses
system.switch_cpus0.dtb.write_hits                  0                       # DTB write hits
system.switch_cpus0.dtb.write_misses                0                       # DTB write misses
system.switch_cpus0.dtb.flush_tlb                   0                       # Number of times complete TLB was flushed
system.switch_cpus0.dtb.flush_tlb_mva               0                       # Number of times TLB was flushed by MVA
system.switch_cpus0.dtb.flush_tlb_mva_asid            0                       # Number of times TLB was flushed by MVA & ASID
system.switch_cpus0.dtb.flush_tlb_asid              0                       # Number of times TLB was flushed by ASID
system.switch_cpus0.dtb.flush_entries               0                       # Number of entries that have been flushed from TLB
system.switch_cpus0.dtb.align_faults                0                       # Number of TLB faults due to alignment restrictions
system.switch_cpus0.dtb.prefetch_faults             0                       # Number of TLB faults due to prefetch
system.switch_cpus0.dtb.domain_faults               0                       # Number of TLB faults due to domain restrictions
system.switch_cpus0.dtb.perms_faults                0                       # Number of TLB faults due to permissions restrictions
system.switch_cpus0.dtb.read_accesses               0                       # DTB read accesses
system.switch_cpus0.dtb.write_accesses              0                       # DTB write accesses
system.switch_cpus0.dtb.inst_accesses               0                       # ITB inst accesses
system.switch_cpus0.dtb.hits                        0                       # DTB hits
system.switch_cpus0.dtb.misses                      0                       # DTB misses
system.switch_cpus0.dtb.accesses                    0                       # DTB accesses
system.switch_cpus0.itb.inst_hits                   0                       # ITB inst hits
system.switch_cpus0.itb.inst_misses                 0                       # ITB inst misses
system.switch_cpus0.itb.read_hits                   0                       # DTB read hits
system.switch_cpus0.itb.read_misses                 0                       # DTB read misses
system.switch_cpus0.itb.write_hits                  0                       # DTB write hits
system.switch_cpus0.itb.write_misses                0                       # DTB write misses
system.switch_cpus0.itb.flush_tlb                   0                       # Number of times complete TLB was flushed
system.switch_cpus0.itb.flush_tlb_mva               0                       # Number of times TLB was flushed by MVA
system.switch_cpus0.itb.flush_tlb_mva_asid            0                       # Number of times TLB was flushed by MVA & ASID
system.switch_cpus0.itb.flush_tlb_asid              0                       # Number of times TLB was flushed by ASID
system.switch_cpus0.itb.flush_entries               0                       # Number of entries that have been flushed from TLB
system.switch_cpus0.itb.align_faults                0                       # Number of TLB faults due to alignment restrictions
system.switch_cpus0.itb.prefetch_faults             0                       # Number of TLB faults due to prefetch
system.switch_cpus0.itb.domain_faults               0                       # Number of TLB faults due to domain restrictions
system.switch_cpus0.itb.perms_faults                0                       # Number of TLB faults due to permissions restrictions
system.switch_cpus0.itb.read_accesses               0                       # DTB read accesses
system.switch_cpus0.itb.write_accesses              0                       # DTB write accesses
system.switch_cpus0.itb.inst_accesses               0                       # ITB inst accesses
system.switch_cpus0.itb.hits                        0                       # DTB hits
system.switch_cpus0.itb.misses                      0                       # DTB misses
system.switch_cpus0.itb.accesses                    0                       # DTB accesses
system.cpu0.workload.num_syscalls                   8                       # Number of system calls
system.switch_cpus0.numCycles                 8007957                       # number of cpu cycles simulated
system.switch_cpus0.numWorkItemsStarted             0                       # number of work items this cpu started
system.switch_cpus0.numWorkItemsCompleted            0                       # number of work items this cpu completed
system.switch_cpus0.BPredUnit.lookups         2854091                       # Number of BP lookups
system.switch_cpus0.BPredUnit.condPredicted      2488286                       # Number of conditional branches predicted
system.switch_cpus0.BPredUnit.condIncorrect       188670                       # Number of conditional branches incorrect
system.switch_cpus0.BPredUnit.BTBLookups      1431966                       # Number of BTB lookups
system.switch_cpus0.BPredUnit.BTBHits         1383985                       # Number of BTB hits
system.switch_cpus0.BPredUnit.BTBCorrect            0                       # Number of correct BTB predictions (this stat may not work properly.
system.switch_cpus0.BPredUnit.usedRAS          199828                       # Number of times the RAS was used to get a target.
system.switch_cpus0.BPredUnit.RASInCorrect         5731                       # Number of incorrect RAS predictions.
system.switch_cpus0.fetch.icacheStallCycles      3496147                       # Number of cycles fetch is stalled on an Icache miss
system.switch_cpus0.fetch.Insts              15849934                       # Number of instructions fetch has processed
system.switch_cpus0.fetch.Branches            2854091                       # Number of branches that fetch encountered
system.switch_cpus0.fetch.predictedBranches      1583813                       # Number of branches that fetch has predicted taken
system.switch_cpus0.fetch.Cycles              3355929                       # Number of cycles fetch has run and was not squashing or blocked
system.switch_cpus0.fetch.SquashCycles         874103                       # Number of cycles fetch has spent squashing
system.switch_cpus0.fetch.BlockedCycles        339199                       # Number of cycles fetch has spent blocked
system.switch_cpus0.fetch.MiscStallCycles            1                       # Number of cycles fetch has spent waiting on interrupts, or bad addresses, or out of MSHRs
system.switch_cpus0.fetch.PendingTrapStallCycles            4                       # Number of stall cycles due to pending traps
system.switch_cpus0.fetch.CacheLines          1719021                       # Number of cache lines fetched
system.switch_cpus0.fetch.IcacheSquashes        90508                       # Number of outstanding Icache misses that were squashed
system.switch_cpus0.fetch.rateDist::samples      7875557                       # Number of instructions fetched each cycle (Total)
system.switch_cpus0.fetch.rateDist::mean     2.319257                       # Number of instructions fetched each cycle (Total)
system.switch_cpus0.fetch.rateDist::stdev     3.292995                       # Number of instructions fetched each cycle (Total)
system.switch_cpus0.fetch.rateDist::underflows            0      0.00%      0.00% # Number of instructions fetched each cycle (Total)
system.switch_cpus0.fetch.rateDist::0         4519628     57.39%     57.39% # Number of instructions fetched each cycle (Total)
system.switch_cpus0.fetch.rateDist::1          600594      7.63%     65.01% # Number of instructions fetched each cycle (Total)
system.switch_cpus0.fetch.rateDist::2          293988      3.73%     68.75% # Number of instructions fetched each cycle (Total)
system.switch_cpus0.fetch.rateDist::3          220806      2.80%     71.55% # Number of instructions fetched each cycle (Total)
system.switch_cpus0.fetch.rateDist::4          183426      2.33%     73.88% # Number of instructions fetched each cycle (Total)
system.switch_cpus0.fetch.rateDist::5          157110      1.99%     75.87% # Number of instructions fetched each cycle (Total)
system.switch_cpus0.fetch.rateDist::6           54633      0.69%     76.57% # Number of instructions fetched each cycle (Total)
system.switch_cpus0.fetch.rateDist::7          195575      2.48%     79.05% # Number of instructions fetched each cycle (Total)
system.switch_cpus0.fetch.rateDist::8         1649797     20.95%    100.00% # Number of instructions fetched each cycle (Total)
system.switch_cpus0.fetch.rateDist::overflows            0      0.00%    100.00% # Number of instructions fetched each cycle (Total)
system.switch_cpus0.fetch.rateDist::min_value            0                       # Number of instructions fetched each cycle (Total)
system.switch_cpus0.fetch.rateDist::max_value            8                       # Number of instructions fetched each cycle (Total)
system.switch_cpus0.fetch.rateDist::total      7875557                       # Number of instructions fetched each cycle (Total)
system.switch_cpus0.fetch.branchRate         0.356407                       # Number of branch fetches per cycle
system.switch_cpus0.fetch.rate               1.979273                       # Number of inst fetches per cycle
system.switch_cpus0.decode.IdleCycles         3619834                       # Number of cycles decode is idle
system.switch_cpus0.decode.BlockedCycles       315912                       # Number of cycles decode is blocked
system.switch_cpus0.decode.RunCycles          3242090                       # Number of cycles decode is running
system.switch_cpus0.decode.UnblockCycles        16277                       # Number of cycles decode is unblocking
system.switch_cpus0.decode.SquashCycles        681443                       # Number of cycles decode is squashing
system.switch_cpus0.decode.BranchResolved       312840                       # Number of times decode resolved a branch
system.switch_cpus0.decode.BranchMispred         2856                       # Number of times decode detected a branch misprediction
system.switch_cpus0.decode.DecodedInsts      17715631                       # Number of instructions handled by decode
system.switch_cpus0.decode.SquashedInsts         4443                       # Number of squashed instructions handled by decode
system.switch_cpus0.rename.SquashCycles        681443                       # Number of cycles rename is squashing
system.switch_cpus0.rename.IdleCycles         3770338                       # Number of cycles rename is idle
system.switch_cpus0.rename.BlockCycles         135490                       # Number of cycles rename is blocking
system.switch_cpus0.rename.serializeStallCycles        39950                       # count of cycles rename stalled for serializing inst
system.switch_cpus0.rename.RunCycles          3106454                       # Number of cycles rename is running
system.switch_cpus0.rename.UnblockCycles       141875                       # Number of cycles rename is unblocking
system.switch_cpus0.rename.RenamedInsts      17156487                       # Number of instructions processed by rename
system.switch_cpus0.rename.ROBFullEvents           24                       # Number of times rename has blocked due to ROB full
system.switch_cpus0.rename.IQFullEvents         70981                       # Number of times rename has blocked due to IQ full
system.switch_cpus0.rename.LSQFullEvents        58432                       # Number of times rename has blocked due to LSQ full
system.switch_cpus0.rename.RenamedOperands     22713602                       # Number of destination operands rename has renamed
system.switch_cpus0.rename.RenameLookups     78115574                       # Number of register rename lookups that rename has made
system.switch_cpus0.rename.int_rename_lookups     78115574                       # Number of integer rename lookups
system.switch_cpus0.rename.CommittedMaps     14903407                       # Number of HB maps that are committed
system.switch_cpus0.rename.UndoneMaps         7810152                       # Number of HB maps that are undone due to squashing
system.switch_cpus0.rename.serializingInsts         2131                       # count of serializing insts renamed
system.switch_cpus0.rename.tempSerializingInsts         1132                       # count of temporary serializing insts renamed
system.switch_cpus0.rename.skidInsts           363355                       # count of insts added to the skid buffer
system.switch_cpus0.memDep0.insertedLoads      2625404                       # Number of loads inserted to the mem dependence unit.
system.switch_cpus0.memDep0.insertedStores       596339                       # Number of stores inserted to the mem dependence unit.
system.switch_cpus0.memDep0.conflictingLoads         7745                       # Number of conflicting loads.
system.switch_cpus0.memDep0.conflictingStores       192258                       # Number of conflicting stores.
system.switch_cpus0.iq.iqInstsAdded          16135554                       # Number of instructions added to the IQ (excludes non-spec)
system.switch_cpus0.iq.iqNonSpecInstsAdded         2137                       # Number of non-speculative instructions added to the IQ
system.switch_cpus0.iq.iqInstsIssued         13765304                       # Number of instructions issued
system.switch_cpus0.iq.iqSquashedInstsIssued        18027                       # Number of squashed instructions issued
system.switch_cpus0.iq.iqSquashedInstsExamined      4649606                       # Number of squashed instructions iterated over during squash; mainly for profiling
system.switch_cpus0.iq.iqSquashedOperandsExamined     12636307                       # Number of squashed operands that are examined and possibly removed from graph
system.switch_cpus0.iq.iqSquashedNonSpecRemoved          101                       # Number of squashed non-spec instructions that were removed
system.switch_cpus0.iq.issued_per_cycle::samples      7875557                       # Number of insts issued each cycle
system.switch_cpus0.iq.issued_per_cycle::mean     1.747851                       # Number of insts issued each cycle
system.switch_cpus0.iq.issued_per_cycle::stdev     1.858682                       # Number of insts issued each cycle
system.switch_cpus0.iq.issued_per_cycle::underflows            0      0.00%      0.00% # Number of insts issued each cycle
system.switch_cpus0.iq.issued_per_cycle::0      2817564     35.78%     35.78% # Number of insts issued each cycle
system.switch_cpus0.iq.issued_per_cycle::1      1676356     21.29%     57.06% # Number of insts issued each cycle
system.switch_cpus0.iq.issued_per_cycle::2       847658     10.76%     67.82% # Number of insts issued each cycle
system.switch_cpus0.iq.issued_per_cycle::3       999552     12.69%     80.52% # Number of insts issued each cycle
system.switch_cpus0.iq.issued_per_cycle::4       744495      9.45%     89.97% # Number of insts issued each cycle
system.switch_cpus0.iq.issued_per_cycle::5       477402      6.06%     96.03% # Number of insts issued each cycle
system.switch_cpus0.iq.issued_per_cycle::6       204675      2.60%     98.63% # Number of insts issued each cycle
system.switch_cpus0.iq.issued_per_cycle::7        60904      0.77%     99.40% # Number of insts issued each cycle
system.switch_cpus0.iq.issued_per_cycle::8        46951      0.60%    100.00% # Number of insts issued each cycle
system.switch_cpus0.iq.issued_per_cycle::overflows            0      0.00%    100.00% # Number of insts issued each cycle
system.switch_cpus0.iq.issued_per_cycle::min_value            0                       # Number of insts issued each cycle
system.switch_cpus0.iq.issued_per_cycle::max_value            8                       # Number of insts issued each cycle
system.switch_cpus0.iq.issued_per_cycle::total      7875557                       # Number of insts issued each cycle
system.switch_cpus0.iq.fu_full::No_OpClass            0      0.00%      0.00% # attempts to use FU when none available
system.switch_cpus0.iq.fu_full::IntAlu          58602     72.98%     72.98% # attempts to use FU when none available
system.switch_cpus0.iq.fu_full::IntMult             0      0.00%     72.98% # attempts to use FU when none available
system.switch_cpus0.iq.fu_full::IntDiv              0      0.00%     72.98% # attempts to use FU when none available
system.switch_cpus0.iq.fu_full::FloatAdd            0      0.00%     72.98% # attempts to use FU when none available
system.switch_cpus0.iq.fu_full::FloatCmp            0      0.00%     72.98% # attempts to use FU when none available
system.switch_cpus0.iq.fu_full::FloatCvt            0      0.00%     72.98% # attempts to use FU when none available
system.switch_cpus0.iq.fu_full::FloatMult            0      0.00%     72.98% # attempts to use FU when none available
system.switch_cpus0.iq.fu_full::FloatDiv            0      0.00%     72.98% # attempts to use FU when none available
system.switch_cpus0.iq.fu_full::FloatSqrt            0      0.00%     72.98% # attempts to use FU when none available
system.switch_cpus0.iq.fu_full::SimdAdd             0      0.00%     72.98% # attempts to use FU when none available
system.switch_cpus0.iq.fu_full::SimdAddAcc            0      0.00%     72.98% # attempts to use FU when none available
system.switch_cpus0.iq.fu_full::SimdAlu             0      0.00%     72.98% # attempts to use FU when none available
system.switch_cpus0.iq.fu_full::SimdCmp             0      0.00%     72.98% # attempts to use FU when none available
system.switch_cpus0.iq.fu_full::SimdCvt             0      0.00%     72.98% # attempts to use FU when none available
system.switch_cpus0.iq.fu_full::SimdMisc            0      0.00%     72.98% # attempts to use FU when none available
system.switch_cpus0.iq.fu_full::SimdMult            0      0.00%     72.98% # attempts to use FU when none available
system.switch_cpus0.iq.fu_full::SimdMultAcc            0      0.00%     72.98% # attempts to use FU when none available
system.switch_cpus0.iq.fu_full::SimdShift            0      0.00%     72.98% # attempts to use FU when none available
system.switch_cpus0.iq.fu_full::SimdShiftAcc            0      0.00%     72.98% # attempts to use FU when none available
system.switch_cpus0.iq.fu_full::SimdSqrt            0      0.00%     72.98% # attempts to use FU when none available
system.switch_cpus0.iq.fu_full::SimdFloatAdd            0      0.00%     72.98% # attempts to use FU when none available
system.switch_cpus0.iq.fu_full::SimdFloatAlu            0      0.00%     72.98% # attempts to use FU when none available
system.switch_cpus0.iq.fu_full::SimdFloatCmp            0      0.00%     72.98% # attempts to use FU when none available
system.switch_cpus0.iq.fu_full::SimdFloatCvt            0      0.00%     72.98% # attempts to use FU when none available
system.switch_cpus0.iq.fu_full::SimdFloatDiv            0      0.00%     72.98% # attempts to use FU when none available
system.switch_cpus0.iq.fu_full::SimdFloatMisc            0      0.00%     72.98% # attempts to use FU when none available
system.switch_cpus0.iq.fu_full::SimdFloatMult            0      0.00%     72.98% # attempts to use FU when none available
system.switch_cpus0.iq.fu_full::SimdFloatMultAcc            0      0.00%     72.98% # attempts to use FU when none available
system.switch_cpus0.iq.fu_full::SimdFloatSqrt            0      0.00%     72.98% # attempts to use FU when none available
system.switch_cpus0.iq.fu_full::MemRead         12605     15.70%     88.68% # attempts to use FU when none available
system.switch_cpus0.iq.fu_full::MemWrite         9088     11.32%    100.00% # attempts to use FU when none available
system.switch_cpus0.iq.fu_full::IprAccess            0      0.00%    100.00% # attempts to use FU when none available
system.switch_cpus0.iq.fu_full::InstPrefetch            0      0.00%    100.00% # attempts to use FU when none available
system.switch_cpus0.iq.FU_type_0::No_OpClass            0      0.00%      0.00% # Type of FU issued
system.switch_cpus0.iq.FU_type_0::IntAlu     10802522     78.48%     78.48% # Type of FU issued
system.switch_cpus0.iq.FU_type_0::IntMult       109479      0.80%     79.27% # Type of FU issued
system.switch_cpus0.iq.FU_type_0::IntDiv            0      0.00%     79.27% # Type of FU issued
system.switch_cpus0.iq.FU_type_0::FloatAdd            0      0.00%     79.27% # Type of FU issued
system.switch_cpus0.iq.FU_type_0::FloatCmp            0      0.00%     79.27% # Type of FU issued
system.switch_cpus0.iq.FU_type_0::FloatCvt            0      0.00%     79.27% # Type of FU issued
system.switch_cpus0.iq.FU_type_0::FloatMult            0      0.00%     79.27% # Type of FU issued
system.switch_cpus0.iq.FU_type_0::FloatDiv            0      0.00%     79.27% # Type of FU issued
system.switch_cpus0.iq.FU_type_0::FloatSqrt            0      0.00%     79.27% # Type of FU issued
system.switch_cpus0.iq.FU_type_0::SimdAdd            0      0.00%     79.27% # Type of FU issued
system.switch_cpus0.iq.FU_type_0::SimdAddAcc            0      0.00%     79.27% # Type of FU issued
system.switch_cpus0.iq.FU_type_0::SimdAlu            0      0.00%     79.27% # Type of FU issued
system.switch_cpus0.iq.FU_type_0::SimdCmp            0      0.00%     79.27% # Type of FU issued
system.switch_cpus0.iq.FU_type_0::SimdCvt            0      0.00%     79.27% # Type of FU issued
system.switch_cpus0.iq.FU_type_0::SimdMisc            0      0.00%     79.27% # Type of FU issued
system.switch_cpus0.iq.FU_type_0::SimdMult            0      0.00%     79.27% # Type of FU issued
system.switch_cpus0.iq.FU_type_0::SimdMultAcc            0      0.00%     79.27% # Type of FU issued
system.switch_cpus0.iq.FU_type_0::SimdShift            0      0.00%     79.27% # Type of FU issued
system.switch_cpus0.iq.FU_type_0::SimdShiftAcc            0      0.00%     79.27% # Type of FU issued
system.switch_cpus0.iq.FU_type_0::SimdSqrt            0      0.00%     79.27% # Type of FU issued
system.switch_cpus0.iq.FU_type_0::SimdFloatAdd            0      0.00%     79.27% # Type of FU issued
system.switch_cpus0.iq.FU_type_0::SimdFloatAlu            0      0.00%     79.27% # Type of FU issued
system.switch_cpus0.iq.FU_type_0::SimdFloatCmp            0      0.00%     79.27% # Type of FU issued
system.switch_cpus0.iq.FU_type_0::SimdFloatCvt            0      0.00%     79.27% # Type of FU issued
system.switch_cpus0.iq.FU_type_0::SimdFloatDiv            0      0.00%     79.27% # Type of FU issued
system.switch_cpus0.iq.FU_type_0::SimdFloatMisc          996      0.01%     79.28% # Type of FU issued
system.switch_cpus0.iq.FU_type_0::SimdFloatMult            0      0.00%     79.28% # Type of FU issued
system.switch_cpus0.iq.FU_type_0::SimdFloatMultAcc            0      0.00%     79.28% # Type of FU issued
system.switch_cpus0.iq.FU_type_0::SimdFloatSqrt            0      0.00%     79.28% # Type of FU issued
system.switch_cpus0.iq.FU_type_0::MemRead      2357783     17.13%     96.41% # Type of FU issued
system.switch_cpus0.iq.FU_type_0::MemWrite       494524      3.59%    100.00% # Type of FU issued
system.switch_cpus0.iq.FU_type_0::IprAccess            0      0.00%    100.00% # Type of FU issued
system.switch_cpus0.iq.FU_type_0::InstPrefetch            0      0.00%    100.00% # Type of FU issued
system.switch_cpus0.iq.FU_type_0::total      13765304                       # Type of FU issued
system.switch_cpus0.iq.rate                  1.718953                       # Inst issue rate
system.switch_cpus0.iq.fu_busy_cnt              80295                       # FU busy when requested
system.switch_cpus0.iq.fu_busy_rate          0.005833                       # FU busy rate (busy events/executed inst)
system.switch_cpus0.iq.int_inst_queue_reads     35504483                       # Number of integer instruction queue reads
system.switch_cpus0.iq.int_inst_queue_writes     20787402                       # Number of integer instruction queue writes
system.switch_cpus0.iq.int_inst_queue_wakeup_accesses     13283225                       # Number of integer instruction queue wakeup accesses
system.switch_cpus0.iq.fp_inst_queue_reads            0                       # Number of floating instruction queue reads
system.switch_cpus0.iq.fp_inst_queue_writes            0                       # Number of floating instruction queue writes
system.switch_cpus0.iq.fp_inst_queue_wakeup_accesses            0                       # Number of floating instruction queue wakeup accesses
system.switch_cpus0.iq.int_alu_accesses      13845599                       # Number of integer alu accesses
system.switch_cpus0.iq.fp_alu_accesses              0                       # Number of floating point alu accesses
system.switch_cpus0.iew.lsq.thread0.forwLoads        23026                       # Number of loads that had data forwarded from stores
system.switch_cpus0.iew.lsq.thread0.invAddrLoads            0                       # Number of loads ignored due to an invalid address
system.switch_cpus0.iew.lsq.thread0.squashedLoads       737326                       # Number of loads squashed
system.switch_cpus0.iew.lsq.thread0.ignoredResponses          104                       # Number of memory responses ignored because the instruction is squashed
system.switch_cpus0.iew.lsq.thread0.memOrderViolation          110                       # Number of memory ordering violations
system.switch_cpus0.iew.lsq.thread0.squashedStores       156582                       # Number of stores squashed
system.switch_cpus0.iew.lsq.thread0.invAddrSwpfs            0                       # Number of software prefetches ignored due to an invalid address
system.switch_cpus0.iew.lsq.thread0.blockedLoads            0                       # Number of blocked loads due to partial load-store forwarding
system.switch_cpus0.iew.lsq.thread0.rescheduledLoads            0                       # Number of loads that were rescheduled
system.switch_cpus0.iew.lsq.thread0.cacheBlocked            0                       # Number of times an access to memory failed due to the cache being blocked
system.switch_cpus0.iew.iewIdleCycles               0                       # Number of cycles IEW is idle
system.switch_cpus0.iew.iewSquashCycles        681443                       # Number of cycles IEW is squashing
system.switch_cpus0.iew.iewBlockCycles          75874                       # Number of cycles IEW is blocking
system.switch_cpus0.iew.iewUnblockCycles         6923                       # Number of cycles IEW is unblocking
system.switch_cpus0.iew.iewDispatchedInsts     16137692                       # Number of instructions dispatched to IQ
system.switch_cpus0.iew.iewDispSquashedInsts        62467                       # Number of squashed instructions skipped by dispatch
system.switch_cpus0.iew.iewDispLoadInsts      2625404                       # Number of dispatched load instructions
system.switch_cpus0.iew.iewDispStoreInsts       596339                       # Number of dispatched store instructions
system.switch_cpus0.iew.iewDispNonSpecInsts         1122                       # Number of dispatched non-speculative instructions
system.switch_cpus0.iew.iewIQFullEvents          3892                       # Number of times the IQ has become full, causing a stall
system.switch_cpus0.iew.iewLSQFullEvents           43                       # Number of times the LSQ has become full, causing a stall
system.switch_cpus0.iew.memOrderViolationEvents          110                       # Number of memory order violations
system.switch_cpus0.iew.predictedTakenIncorrect        94908                       # Number of branches that were predicted taken incorrectly
system.switch_cpus0.iew.predictedNotTakenIncorrect       112035                       # Number of branches that were predicted not taken incorrectly
system.switch_cpus0.iew.branchMispredicts       206943                       # Number of branch mispredicts detected at execute
system.switch_cpus0.iew.iewExecutedInsts     13463577                       # Number of executed instructions
system.switch_cpus0.iew.iewExecLoadInsts      2256288                       # Number of load instructions executed
system.switch_cpus0.iew.iewExecSquashedInsts       301723                       # Number of squashed instructions skipped in execute
system.switch_cpus0.iew.exec_swp                    0                       # number of swp insts executed
system.switch_cpus0.iew.exec_nop                    1                       # number of nop insts executed
system.switch_cpus0.iew.exec_refs             2737840                       # number of memory reference insts executed
system.switch_cpus0.iew.exec_branches         2017137                       # Number of branches executed
system.switch_cpus0.iew.exec_stores            481552                       # Number of stores executed
system.switch_cpus0.iew.exec_rate            1.681275                       # Inst execution rate
system.switch_cpus0.iew.wb_sent              13308563                       # cumulative count of insts sent to commit
system.switch_cpus0.iew.wb_count             13283225                       # cumulative count of insts written-back
system.switch_cpus0.iew.wb_producers          7996277                       # num instructions producing a value
system.switch_cpus0.iew.wb_consumers         19695623                       # num instructions consuming a value
system.switch_cpus0.iew.wb_penalized                0                       # number of instrctions required to write to 'other' IQ
system.switch_cpus0.iew.wb_rate              1.658753                       # insts written-back per cycle
system.switch_cpus0.iew.wb_fanout            0.405993                       # average fanout of values written-back
system.switch_cpus0.iew.wb_penalized_rate            0                       # fraction of instructions written-back that wrote to 'other' IQ
system.switch_cpus0.commit.commitCommittedInsts     10000001                       # The number of committed instructions
system.switch_cpus0.commit.commitCommittedOps     11370184                       # The number of committed instructions
system.switch_cpus0.commit.commitSquashedInsts      4767621                       # The number of squashed insts skipped by commit
system.switch_cpus0.commit.commitNonSpecStalls         2036                       # The number of times commit has been forced to stall to communicate backwards
system.switch_cpus0.commit.branchMispredicts       186907                       # The number of times a branch was mispredicted
system.switch_cpus0.commit.committed_per_cycle::samples      7194114                       # Number of insts commited each cycle
system.switch_cpus0.commit.committed_per_cycle::mean     1.580484                       # Number of insts commited each cycle
system.switch_cpus0.commit.committed_per_cycle::stdev     2.292404                       # Number of insts commited each cycle
system.switch_cpus0.commit.committed_per_cycle::underflows            0      0.00%      0.00% # Number of insts commited each cycle
system.switch_cpus0.commit.committed_per_cycle::0      3359881     46.70%     46.70% # Number of insts commited each cycle
system.switch_cpus0.commit.committed_per_cycle::1      1531482     21.29%     67.99% # Number of insts commited each cycle
system.switch_cpus0.commit.committed_per_cycle::2       837105     11.64%     79.63% # Number of insts commited each cycle
system.switch_cpus0.commit.committed_per_cycle::3       305348      4.24%     83.87% # Number of insts commited each cycle
system.switch_cpus0.commit.committed_per_cycle::4       261736      3.64%     87.51% # Number of insts commited each cycle
system.switch_cpus0.commit.committed_per_cycle::5       115980      1.61%     89.12% # Number of insts commited each cycle
system.switch_cpus0.commit.committed_per_cycle::6       280766      3.90%     93.02% # Number of insts commited each cycle
system.switch_cpus0.commit.committed_per_cycle::7        77520      1.08%     94.10% # Number of insts commited each cycle
system.switch_cpus0.commit.committed_per_cycle::8       424296      5.90%    100.00% # Number of insts commited each cycle
system.switch_cpus0.commit.committed_per_cycle::overflows            0      0.00%    100.00% # Number of insts commited each cycle
system.switch_cpus0.commit.committed_per_cycle::min_value            0                       # Number of insts commited each cycle
system.switch_cpus0.commit.committed_per_cycle::max_value            8                       # Number of insts commited each cycle
system.switch_cpus0.commit.committed_per_cycle::total      7194114                       # Number of insts commited each cycle
system.switch_cpus0.commit.committedInsts     10000001                       # Number of instructions committed
system.switch_cpus0.commit.committedOps      11370184                       # Number of ops (including micro ops) committed
system.switch_cpus0.commit.swp_count                0                       # Number of s/w prefetches committed
system.switch_cpus0.commit.refs               2327830                       # Number of memory references committed
system.switch_cpus0.commit.loads              1888073                       # Number of loads committed
system.switch_cpus0.commit.membars               1012                       # Number of memory barriers committed
system.switch_cpus0.commit.branches           1779014                       # Number of branches committed
system.switch_cpus0.commit.fp_insts                 0                       # Number of committed floating point instructions.
system.switch_cpus0.commit.int_insts          9928958                       # Number of committed integer instructions.
system.switch_cpus0.commit.function_calls       154568                       # Number of function calls committed.
system.switch_cpus0.commit.bw_lim_events       424296                       # number cycles where commit BW limit reached
system.switch_cpus0.commit.bw_limited               0                       # number of insts not committed due to BW limits
system.switch_cpus0.rob.rob_reads            22907519                       # The number of ROB reads
system.switch_cpus0.rob.rob_writes           32957964                       # The number of ROB writes
system.switch_cpus0.timesIdled                   3301                       # Number of times that the entire CPU went into an idle state and unscheduled itself
system.switch_cpus0.idleCycles                 132400                       # Total number of cycles that the CPU has spent unscheduled due to idling
system.switch_cpus0.committedInsts           10000001                       # Number of Instructions Simulated
system.switch_cpus0.committedOps             11370184                       # Number of Ops (including micro ops) Simulated
system.switch_cpus0.committedInsts_total     10000001                       # Number of Instructions Simulated
system.switch_cpus0.cpi                      0.800796                       # CPI: Cycles Per Instruction
system.switch_cpus0.cpi_total                0.800796                       # CPI: Total CPI of All Threads
system.switch_cpus0.ipc                      1.248758                       # IPC: Instructions Per Cycle
system.switch_cpus0.ipc_total                1.248758                       # IPC: Total IPC of All Threads
system.switch_cpus0.int_regfile_reads        62337687                       # number of integer regfile reads
system.switch_cpus0.int_regfile_writes       17432693                       # number of integer regfile writes
system.switch_cpus0.misc_regfile_reads       18277310                       # number of misc regfile reads
system.switch_cpus0.misc_regfile_writes          2032                       # number of misc regfile writes
system.switch_cpus1.dtb.inst_hits                   0                       # ITB inst hits
system.switch_cpus1.dtb.inst_misses                 0                       # ITB inst misses
system.switch_cpus1.dtb.read_hits                   0                       # DTB read hits
system.switch_cpus1.dtb.read_misses                 0                       # DTB read misses
system.switch_cpus1.dtb.write_hits                  0                       # DTB write hits
system.switch_cpus1.dtb.write_misses                0                       # DTB write misses
system.switch_cpus1.dtb.flush_tlb                   0                       # Number of times complete TLB was flushed
system.switch_cpus1.dtb.flush_tlb_mva               0                       # Number of times TLB was flushed by MVA
system.switch_cpus1.dtb.flush_tlb_mva_asid            0                       # Number of times TLB was flushed by MVA & ASID
system.switch_cpus1.dtb.flush_tlb_asid              0                       # Number of times TLB was flushed by ASID
system.switch_cpus1.dtb.flush_entries               0                       # Number of entries that have been flushed from TLB
system.switch_cpus1.dtb.align_faults                0                       # Number of TLB faults due to alignment restrictions
system.switch_cpus1.dtb.prefetch_faults             0                       # Number of TLB faults due to prefetch
system.switch_cpus1.dtb.domain_faults               0                       # Number of TLB faults due to domain restrictions
system.switch_cpus1.dtb.perms_faults                0                       # Number of TLB faults due to permissions restrictions
system.switch_cpus1.dtb.read_accesses               0                       # DTB read accesses
system.switch_cpus1.dtb.write_accesses              0                       # DTB write accesses
system.switch_cpus1.dtb.inst_accesses               0                       # ITB inst accesses
system.switch_cpus1.dtb.hits                        0                       # DTB hits
system.switch_cpus1.dtb.misses                      0                       # DTB misses
system.switch_cpus1.dtb.accesses                    0                       # DTB accesses
system.switch_cpus1.itb.inst_hits                   0                       # ITB inst hits
system.switch_cpus1.itb.inst_misses                 0                       # ITB inst misses
system.switch_cpus1.itb.read_hits                   0                       # DTB read hits
system.switch_cpus1.itb.read_misses                 0                       # DTB read misses
system.switch_cpus1.itb.write_hits                  0                       # DTB write hits
system.switch_cpus1.itb.write_misses                0                       # DTB write misses
system.switch_cpus1.itb.flush_tlb                   0                       # Number of times complete TLB was flushed
system.switch_cpus1.itb.flush_tlb_mva               0                       # Number of times TLB was flushed by MVA
system.switch_cpus1.itb.flush_tlb_mva_asid            0                       # Number of times TLB was flushed by MVA & ASID
system.switch_cpus1.itb.flush_tlb_asid              0                       # Number of times TLB was flushed by ASID
system.switch_cpus1.itb.flush_entries               0                       # Number of entries that have been flushed from TLB
system.switch_cpus1.itb.align_faults                0                       # Number of TLB faults due to alignment restrictions
system.switch_cpus1.itb.prefetch_faults             0                       # Number of TLB faults due to prefetch
system.switch_cpus1.itb.domain_faults               0                       # Number of TLB faults due to domain restrictions
system.switch_cpus1.itb.perms_faults                0                       # Number of TLB faults due to permissions restrictions
system.switch_cpus1.itb.read_accesses               0                       # DTB read accesses
system.switch_cpus1.itb.write_accesses              0                       # DTB write accesses
system.switch_cpus1.itb.inst_accesses               0                       # ITB inst accesses
system.switch_cpus1.itb.hits                        0                       # DTB hits
system.switch_cpus1.itb.misses                      0                       # DTB misses
system.switch_cpus1.itb.accesses                    0                       # DTB accesses
system.cpu1.workload.num_syscalls                  13                       # Number of system calls
system.switch_cpus1.numCycles                 8007957                       # number of cpu cycles simulated
system.switch_cpus1.numWorkItemsStarted             0                       # number of work items this cpu started
system.switch_cpus1.numWorkItemsCompleted            0                       # number of work items this cpu completed
system.switch_cpus1.BPredUnit.lookups         3030406                       # Number of BP lookups
system.switch_cpus1.BPredUnit.condPredicted      2469984                       # Number of conditional branches predicted
system.switch_cpus1.BPredUnit.condIncorrect       200713                       # Number of conditional branches incorrect
system.switch_cpus1.BPredUnit.BTBLookups      1236284                       # Number of BTB lookups
system.switch_cpus1.BPredUnit.BTBHits         1175331                       # Number of BTB hits
system.switch_cpus1.BPredUnit.BTBCorrect            0                       # Number of correct BTB predictions (this stat may not work properly.
system.switch_cpus1.BPredUnit.usedRAS          322405                       # Number of times the RAS was used to get a target.
system.switch_cpus1.BPredUnit.RASInCorrect         8818                       # Number of incorrect RAS predictions.
system.switch_cpus1.fetch.icacheStallCycles      3114413                       # Number of cycles fetch is stalled on an Icache miss
system.switch_cpus1.fetch.Insts              16542186                       # Number of instructions fetch has processed
system.switch_cpus1.fetch.Branches            3030406                       # Number of branches that fetch encountered
system.switch_cpus1.fetch.predictedBranches      1497736                       # Number of branches that fetch has predicted taken
system.switch_cpus1.fetch.Cycles              3465234                       # Number of cycles fetch has run and was not squashing or blocked
system.switch_cpus1.fetch.SquashCycles        1083395                       # Number of cycles fetch has spent squashing
system.switch_cpus1.fetch.BlockedCycles        441818                       # Number of cycles fetch has spent blocked
system.switch_cpus1.fetch.PendingTrapStallCycles           10                       # Number of stall cycles due to pending traps
system.switch_cpus1.fetch.CacheLines          1527536                       # Number of cache lines fetched
system.switch_cpus1.fetch.IcacheSquashes        85914                       # Number of outstanding Icache misses that were squashed
system.switch_cpus1.fetch.rateDist::samples      7901340                       # Number of instructions fetched each cycle (Total)
system.switch_cpus1.fetch.rateDist::mean     2.593824                       # Number of instructions fetched each cycle (Total)
system.switch_cpus1.fetch.rateDist::stdev     3.375914                       # Number of instructions fetched each cycle (Total)
system.switch_cpus1.fetch.rateDist::underflows            0      0.00%      0.00% # Number of instructions fetched each cycle (Total)
system.switch_cpus1.fetch.rateDist::0         4436106     56.14%     56.14% # Number of instructions fetched each cycle (Total)
system.switch_cpus1.fetch.rateDist::1          241179      3.05%     59.20% # Number of instructions fetched each cycle (Total)
system.switch_cpus1.fetch.rateDist::2          251929      3.19%     62.38% # Number of instructions fetched each cycle (Total)
system.switch_cpus1.fetch.rateDist::3          396164      5.01%     67.40% # Number of instructions fetched each cycle (Total)
system.switch_cpus1.fetch.rateDist::4          189529      2.40%     69.80% # Number of instructions fetched each cycle (Total)
system.switch_cpus1.fetch.rateDist::5          266956      3.38%     73.18% # Number of instructions fetched each cycle (Total)
system.switch_cpus1.fetch.rateDist::6          177805      2.25%     75.43% # Number of instructions fetched each cycle (Total)
system.switch_cpus1.fetch.rateDist::7          131946      1.67%     77.10% # Number of instructions fetched each cycle (Total)
system.switch_cpus1.fetch.rateDist::8         1809726     22.90%    100.00% # Number of instructions fetched each cycle (Total)
system.switch_cpus1.fetch.rateDist::overflows            0      0.00%    100.00% # Number of instructions fetched each cycle (Total)
system.switch_cpus1.fetch.rateDist::min_value            0                       # Number of instructions fetched each cycle (Total)
system.switch_cpus1.fetch.rateDist::max_value            8                       # Number of instructions fetched each cycle (Total)
system.switch_cpus1.fetch.rateDist::total      7901340                       # Number of instructions fetched each cycle (Total)
system.switch_cpus1.fetch.branchRate         0.378424                       # Number of branch fetches per cycle
system.switch_cpus1.fetch.rate               2.065719                       # Number of inst fetches per cycle
system.switch_cpus1.decode.IdleCycles         3280228                       # Number of cycles decode is idle
system.switch_cpus1.decode.BlockedCycles       399130                       # Number of cycles decode is blocked
system.switch_cpus1.decode.RunCycles          3315219                       # Number of cycles decode is running
system.switch_cpus1.decode.UnblockCycles        27694                       # Number of cycles decode is unblocking
system.switch_cpus1.decode.SquashCycles        879065                       # Number of cycles decode is squashing
system.switch_cpus1.decode.BranchResolved       513467                       # Number of times decode resolved a branch
system.switch_cpus1.decode.BranchMispred          824                       # Number of times decode detected a branch misprediction
system.switch_cpus1.decode.DecodedInsts      19761688                       # Number of instructions handled by decode
system.switch_cpus1.decode.SquashedInsts         3270                       # Number of squashed instructions handled by decode
system.switch_cpus1.rename.SquashCycles        879065                       # Number of cycles rename is squashing
system.switch_cpus1.rename.IdleCycles         3446052                       # Number of cycles rename is idle
system.switch_cpus1.rename.BlockCycles          97651                       # Number of cycles rename is blocking
system.switch_cpus1.rename.serializeStallCycles        89440                       # count of cycles rename stalled for serializing inst
system.switch_cpus1.rename.RunCycles          3175071                       # Number of cycles rename is running
system.switch_cpus1.rename.UnblockCycles       214057                       # Number of cycles rename is unblocking
system.switch_cpus1.rename.RenamedInsts      19048779                       # Number of instructions processed by rename
system.switch_cpus1.rename.ROBFullEvents           30                       # Number of times rename has blocked due to ROB full
system.switch_cpus1.rename.IQFullEvents        122468                       # Number of times rename has blocked due to IQ full
system.switch_cpus1.rename.LSQFullEvents        64116                       # Number of times rename has blocked due to LSQ full
system.switch_cpus1.rename.RenamedOperands     26673123                       # Number of destination operands rename has renamed
system.switch_cpus1.rename.RenameLookups     88796836                       # Number of register rename lookups that rename has made
system.switch_cpus1.rename.int_rename_lookups     88796836                       # Number of integer rename lookups
system.switch_cpus1.rename.CommittedMaps     16236827                       # Number of HB maps that are committed
system.switch_cpus1.rename.UndoneMaps        10436236                       # Number of HB maps that are undone due to squashing
system.switch_cpus1.rename.serializingInsts         3269                       # count of serializing insts renamed
system.switch_cpus1.rename.tempSerializingInsts         1670                       # count of temporary serializing insts renamed
system.switch_cpus1.rename.skidInsts           570320                       # count of insts added to the skid buffer
system.switch_cpus1.memDep0.insertedLoads      1775225                       # Number of loads inserted to the mem dependence unit.
system.switch_cpus1.memDep0.insertedStores       913559                       # Number of stores inserted to the mem dependence unit.
system.switch_cpus1.memDep0.conflictingLoads         9569                       # Number of conflicting loads.
system.switch_cpus1.memDep0.conflictingStores       282203                       # Number of conflicting stores.
system.switch_cpus1.iq.iqInstsAdded          17849055                       # Number of instructions added to the IQ (excludes non-spec)
system.switch_cpus1.iq.iqNonSpecInstsAdded         3284                       # Number of non-speculative instructions added to the IQ
system.switch_cpus1.iq.iqInstsIssued         14160240                       # Number of instructions issued
system.switch_cpus1.iq.iqSquashedInstsIssued        25690                       # Number of squashed instructions issued
system.switch_cpus1.iq.iqSquashedInstsExamined      6174650                       # Number of squashed instructions iterated over during squash; mainly for profiling
system.switch_cpus1.iq.iqSquashedOperandsExamined     19062626                       # Number of squashed operands that are examined and possibly removed from graph
system.switch_cpus1.iq.iqSquashedNonSpecRemoved           29                       # Number of squashed non-spec instructions that were removed
system.switch_cpus1.iq.issued_per_cycle::samples      7901340                       # Number of insts issued each cycle
system.switch_cpus1.iq.issued_per_cycle::mean     1.792131                       # Number of insts issued each cycle
system.switch_cpus1.iq.issued_per_cycle::stdev     1.931645                       # Number of insts issued each cycle
system.switch_cpus1.iq.issued_per_cycle::underflows            0      0.00%      0.00% # Number of insts issued each cycle
system.switch_cpus1.iq.issued_per_cycle::0      2728158     34.53%     34.53% # Number of insts issued each cycle
system.switch_cpus1.iq.issued_per_cycle::1      1720205     21.77%     56.30% # Number of insts issued each cycle
system.switch_cpus1.iq.issued_per_cycle::2      1114644     14.11%     70.41% # Number of insts issued each cycle
system.switch_cpus1.iq.issued_per_cycle::3       753489      9.54%     79.94% # Number of insts issued each cycle
system.switch_cpus1.iq.issued_per_cycle::4       697947      8.83%     88.78% # Number of insts issued each cycle
system.switch_cpus1.iq.issued_per_cycle::5       387242      4.90%     93.68% # Number of insts issued each cycle
system.switch_cpus1.iq.issued_per_cycle::6       348481      4.41%     98.09% # Number of insts issued each cycle
system.switch_cpus1.iq.issued_per_cycle::7        77996      0.99%     99.07% # Number of insts issued each cycle
system.switch_cpus1.iq.issued_per_cycle::8        73178      0.93%    100.00% # Number of insts issued each cycle
system.switch_cpus1.iq.issued_per_cycle::overflows            0      0.00%    100.00% # Number of insts issued each cycle
system.switch_cpus1.iq.issued_per_cycle::min_value            0                       # Number of insts issued each cycle
system.switch_cpus1.iq.issued_per_cycle::max_value            8                       # Number of insts issued each cycle
system.switch_cpus1.iq.issued_per_cycle::total      7901340                       # Number of insts issued each cycle
system.switch_cpus1.iq.fu_full::No_OpClass            0      0.00%      0.00% # attempts to use FU when none available
system.switch_cpus1.iq.fu_full::IntAlu         106547     77.68%     77.68% # attempts to use FU when none available
system.switch_cpus1.iq.fu_full::IntMult             0      0.00%     77.68% # attempts to use FU when none available
system.switch_cpus1.iq.fu_full::IntDiv              0      0.00%     77.68% # attempts to use FU when none available
system.switch_cpus1.iq.fu_full::FloatAdd            0      0.00%     77.68% # attempts to use FU when none available
system.switch_cpus1.iq.fu_full::FloatCmp            0      0.00%     77.68% # attempts to use FU when none available
system.switch_cpus1.iq.fu_full::FloatCvt            0      0.00%     77.68% # attempts to use FU when none available
system.switch_cpus1.iq.fu_full::FloatMult            0      0.00%     77.68% # attempts to use FU when none available
system.switch_cpus1.iq.fu_full::FloatDiv            0      0.00%     77.68% # attempts to use FU when none available
system.switch_cpus1.iq.fu_full::FloatSqrt            0      0.00%     77.68% # attempts to use FU when none available
system.switch_cpus1.iq.fu_full::SimdAdd             0      0.00%     77.68% # attempts to use FU when none available
system.switch_cpus1.iq.fu_full::SimdAddAcc            0      0.00%     77.68% # attempts to use FU when none available
system.switch_cpus1.iq.fu_full::SimdAlu             0      0.00%     77.68% # attempts to use FU when none available
system.switch_cpus1.iq.fu_full::SimdCmp             0      0.00%     77.68% # attempts to use FU when none available
system.switch_cpus1.iq.fu_full::SimdCvt             0      0.00%     77.68% # attempts to use FU when none available
system.switch_cpus1.iq.fu_full::SimdMisc            0      0.00%     77.68% # attempts to use FU when none available
system.switch_cpus1.iq.fu_full::SimdMult            0      0.00%     77.68% # attempts to use FU when none available
system.switch_cpus1.iq.fu_full::SimdMultAcc            0      0.00%     77.68% # attempts to use FU when none available
system.switch_cpus1.iq.fu_full::SimdShift            0      0.00%     77.68% # attempts to use FU when none available
system.switch_cpus1.iq.fu_full::SimdShiftAcc            0      0.00%     77.68% # attempts to use FU when none available
system.switch_cpus1.iq.fu_full::SimdSqrt            0      0.00%     77.68% # attempts to use FU when none available
system.switch_cpus1.iq.fu_full::SimdFloatAdd            0      0.00%     77.68% # attempts to use FU when none available
system.switch_cpus1.iq.fu_full::SimdFloatAlu            0      0.00%     77.68% # attempts to use FU when none available
system.switch_cpus1.iq.fu_full::SimdFloatCmp            0      0.00%     77.68% # attempts to use FU when none available
system.switch_cpus1.iq.fu_full::SimdFloatCvt            0      0.00%     77.68% # attempts to use FU when none available
system.switch_cpus1.iq.fu_full::SimdFloatDiv            0      0.00%     77.68% # attempts to use FU when none available
system.switch_cpus1.iq.fu_full::SimdFloatMisc            0      0.00%     77.68% # attempts to use FU when none available
system.switch_cpus1.iq.fu_full::SimdFloatMult            0      0.00%     77.68% # attempts to use FU when none available
system.switch_cpus1.iq.fu_full::SimdFloatMultAcc            0      0.00%     77.68% # attempts to use FU when none available
system.switch_cpus1.iq.fu_full::SimdFloatSqrt            0      0.00%     77.68% # attempts to use FU when none available
system.switch_cpus1.iq.fu_full::MemRead         15630     11.40%     89.08% # attempts to use FU when none available
system.switch_cpus1.iq.fu_full::MemWrite        14976     10.92%    100.00% # attempts to use FU when none available
system.switch_cpus1.iq.fu_full::IprAccess            0      0.00%    100.00% # attempts to use FU when none available
system.switch_cpus1.iq.fu_full::InstPrefetch            0      0.00%    100.00% # attempts to use FU when none available
system.switch_cpus1.iq.FU_type_0::No_OpClass            0      0.00%      0.00% # Type of FU issued
system.switch_cpus1.iq.FU_type_0::IntAlu     11817319     83.45%     83.45% # Type of FU issued
system.switch_cpus1.iq.FU_type_0::IntMult       188329      1.33%     84.78% # Type of FU issued
system.switch_cpus1.iq.FU_type_0::IntDiv            0      0.00%     84.78% # Type of FU issued
system.switch_cpus1.iq.FU_type_0::FloatAdd            0      0.00%     84.78% # Type of FU issued
system.switch_cpus1.iq.FU_type_0::FloatCmp            0      0.00%     84.78% # Type of FU issued
system.switch_cpus1.iq.FU_type_0::FloatCvt            0      0.00%     84.78% # Type of FU issued
system.switch_cpus1.iq.FU_type_0::FloatMult            0      0.00%     84.78% # Type of FU issued
system.switch_cpus1.iq.FU_type_0::FloatDiv            0      0.00%     84.78% # Type of FU issued
system.switch_cpus1.iq.FU_type_0::FloatSqrt            0      0.00%     84.78% # Type of FU issued
system.switch_cpus1.iq.FU_type_0::SimdAdd            0      0.00%     84.78% # Type of FU issued
system.switch_cpus1.iq.FU_type_0::SimdAddAcc            0      0.00%     84.78% # Type of FU issued
system.switch_cpus1.iq.FU_type_0::SimdAlu            0      0.00%     84.78% # Type of FU issued
system.switch_cpus1.iq.FU_type_0::SimdCmp            0      0.00%     84.78% # Type of FU issued
system.switch_cpus1.iq.FU_type_0::SimdCvt            0      0.00%     84.78% # Type of FU issued
system.switch_cpus1.iq.FU_type_0::SimdMisc            0      0.00%     84.78% # Type of FU issued
system.switch_cpus1.iq.FU_type_0::SimdMult            0      0.00%     84.78% # Type of FU issued
system.switch_cpus1.iq.FU_type_0::SimdMultAcc            0      0.00%     84.78% # Type of FU issued
system.switch_cpus1.iq.FU_type_0::SimdShift            0      0.00%     84.78% # Type of FU issued
system.switch_cpus1.iq.FU_type_0::SimdShiftAcc            0      0.00%     84.78% # Type of FU issued
system.switch_cpus1.iq.FU_type_0::SimdSqrt            0      0.00%     84.78% # Type of FU issued
system.switch_cpus1.iq.FU_type_0::SimdFloatAdd            0      0.00%     84.78% # Type of FU issued
system.switch_cpus1.iq.FU_type_0::SimdFloatAlu            0      0.00%     84.78% # Type of FU issued
system.switch_cpus1.iq.FU_type_0::SimdFloatCmp            0      0.00%     84.78% # Type of FU issued
system.switch_cpus1.iq.FU_type_0::SimdFloatCvt            0      0.00%     84.78% # Type of FU issued
system.switch_cpus1.iq.FU_type_0::SimdFloatDiv            0      0.00%     84.78% # Type of FU issued
system.switch_cpus1.iq.FU_type_0::SimdFloatMisc         1596      0.01%     84.80% # Type of FU issued
system.switch_cpus1.iq.FU_type_0::SimdFloatMult            0      0.00%     84.80% # Type of FU issued
system.switch_cpus1.iq.FU_type_0::SimdFloatMultAcc            0      0.00%     84.80% # Type of FU issued
system.switch_cpus1.iq.FU_type_0::SimdFloatSqrt            0      0.00%     84.80% # Type of FU issued
system.switch_cpus1.iq.FU_type_0::MemRead      1403626      9.91%     94.71% # Type of FU issued
system.switch_cpus1.iq.FU_type_0::MemWrite       749370      5.29%    100.00% # Type of FU issued
system.switch_cpus1.iq.FU_type_0::IprAccess            0      0.00%    100.00% # Type of FU issued
system.switch_cpus1.iq.FU_type_0::InstPrefetch            0      0.00%    100.00% # Type of FU issued
system.switch_cpus1.iq.FU_type_0::total      14160240                       # Type of FU issued
system.switch_cpus1.iq.rate                  1.768271                       # Inst issue rate
system.switch_cpus1.iq.fu_busy_cnt             137153                       # FU busy when requested
system.switch_cpus1.iq.fu_busy_rate          0.009686                       # FU busy rate (busy events/executed inst)
system.switch_cpus1.iq.int_inst_queue_reads     36384663                       # Number of integer instruction queue reads
system.switch_cpus1.iq.int_inst_queue_writes     24027098                       # Number of integer instruction queue writes
system.switch_cpus1.iq.int_inst_queue_wakeup_accesses     13753073                       # Number of integer instruction queue wakeup accesses
system.switch_cpus1.iq.fp_inst_queue_reads            0                       # Number of floating instruction queue reads
system.switch_cpus1.iq.fp_inst_queue_writes            0                       # Number of floating instruction queue writes
system.switch_cpus1.iq.fp_inst_queue_wakeup_accesses            0                       # Number of floating instruction queue wakeup accesses
system.switch_cpus1.iq.int_alu_accesses      14297393                       # Number of integer alu accesses
system.switch_cpus1.iq.fp_alu_accesses              0                       # Number of floating point alu accesses
system.switch_cpus1.iew.lsq.thread0.forwLoads        19825                       # Number of loads that had data forwarded from stores
system.switch_cpus1.iew.lsq.thread0.invAddrLoads            0                       # Number of loads ignored due to an invalid address
system.switch_cpus1.iew.lsq.thread0.squashedLoads       712875                       # Number of loads squashed
system.switch_cpus1.iew.lsq.thread0.ignoredResponses           59                       # Number of memory responses ignored because the instruction is squashed
system.switch_cpus1.iew.lsq.thread0.memOrderViolation          115                       # Number of memory ordering violations
system.switch_cpus1.iew.lsq.thread0.squashedStores       241220                       # Number of stores squashed
system.switch_cpus1.iew.lsq.thread0.invAddrSwpfs            0                       # Number of software prefetches ignored due to an invalid address
system.switch_cpus1.iew.lsq.thread0.blockedLoads            0                       # Number of blocked loads due to partial load-store forwarding
system.switch_cpus1.iew.lsq.thread0.rescheduledLoads            0                       # Number of loads that were rescheduled
system.switch_cpus1.iew.lsq.thread0.cacheBlocked            0                       # Number of times an access to memory failed due to the cache being blocked
system.switch_cpus1.iew.iewIdleCycles               0                       # Number of cycles IEW is idle
system.switch_cpus1.iew.iewSquashCycles        879065                       # Number of cycles IEW is squashing
system.switch_cpus1.iew.iewBlockCycles          57787                       # Number of cycles IEW is blocking
system.switch_cpus1.iew.iewUnblockCycles        12652                       # Number of cycles IEW is unblocking
system.switch_cpus1.iew.iewDispatchedInsts     17852340                       # Number of instructions dispatched to IQ
system.switch_cpus1.iew.iewDispSquashedInsts        44229                       # Number of squashed instructions skipped by dispatch
system.switch_cpus1.iew.iewDispLoadInsts      1775225                       # Number of dispatched load instructions
system.switch_cpus1.iew.iewDispStoreInsts       913559                       # Number of dispatched store instructions
system.switch_cpus1.iew.iewDispNonSpecInsts         1663                       # Number of dispatched non-speculative instructions
system.switch_cpus1.iew.iewIQFullEvents         10703                       # Number of times the IQ has become full, causing a stall
system.switch_cpus1.iew.iewLSQFullEvents           20                       # Number of times the LSQ has become full, causing a stall
system.switch_cpus1.iew.memOrderViolationEvents          115                       # Number of memory order violations
system.switch_cpus1.iew.predictedTakenIncorrect       119903                       # Number of branches that were predicted taken incorrectly
system.switch_cpus1.iew.predictedNotTakenIncorrect       113983                       # Number of branches that were predicted not taken incorrectly
system.switch_cpus1.iew.branchMispredicts       233886                       # Number of branch mispredicts detected at execute
system.switch_cpus1.iew.iewExecutedInsts     13901988                       # Number of executed instructions
system.switch_cpus1.iew.iewExecLoadInsts      1309742                       # Number of load instructions executed
system.switch_cpus1.iew.iewExecSquashedInsts       258252                       # Number of squashed instructions skipped in execute
system.switch_cpus1.iew.exec_swp                    0                       # number of swp insts executed
system.switch_cpus1.iew.exec_nop                    1                       # number of nop insts executed
system.switch_cpus1.iew.exec_refs             2030732                       # number of memory reference insts executed
system.switch_cpus1.iew.exec_branches         1975702                       # Number of branches executed
system.switch_cpus1.iew.exec_stores            720990                       # Number of stores executed
system.switch_cpus1.iew.exec_rate            1.736022                       # Inst execution rate
system.switch_cpus1.iew.wb_sent              13763638                       # cumulative count of insts sent to commit
system.switch_cpus1.iew.wb_count             13753073                       # cumulative count of insts written-back
system.switch_cpus1.iew.wb_producers          9024321                       # num instructions producing a value
system.switch_cpus1.iew.wb_consumers         25661105                       # num instructions consuming a value
system.switch_cpus1.iew.wb_penalized                0                       # number of instrctions required to write to 'other' IQ
system.switch_cpus1.iew.wb_rate              1.717426                       # insts written-back per cycle
system.switch_cpus1.iew.wb_fanout            0.351673                       # average fanout of values written-back
system.switch_cpus1.iew.wb_penalized_rate            0                       # fraction of instructions written-back that wrote to 'other' IQ
system.switch_cpus1.commit.commitCommittedInsts      9460902                       # The number of committed instructions
system.switch_cpus1.commit.commitCommittedOps     11647932                       # The number of committed instructions
system.switch_cpus1.commit.commitSquashedInsts      6204416                       # The number of squashed insts skipped by commit
system.switch_cpus1.commit.commitNonSpecStalls         3255                       # The number of times commit has been forced to stall to communicate backwards
system.switch_cpus1.commit.branchMispredicts       202633                       # The number of times a branch was mispredicted
[...]
system.cpu3.icache.ReadReq_avg_miss_latency::total 58809.703704                       # average ReadReq miss latency
system.cpu3.icache.demand_avg_miss_latency::switch_cpus3.inst 58809.703704                       # average overall miss latency
system.cpu3.icache.demand_avg_miss_latency::total 58809.703704                       # average overall miss latency
system.cpu3.icache.overall_avg_miss_latency::switch_cpus3.inst 58809.703704                       # average overall miss latency
system.cpu3.icache.overall_avg_miss_latency::total 58809.703704                       # average overall miss latency
system.cpu3.icache.blocked_cycles::no_mshrs            0                       # number of cycles access was blocked
system.cpu3.icache.blocked_cycles::no_targets            0                       # number of cycles access was blocked
system.cpu3.icache.blocked::no_mshrs                0                       # number of cycles access was blocked
system.cpu3.icache.blocked::no_targets              0                       # number of cycles access was blocked
system.cpu3.icache.avg_blocked_cycles::no_mshrs          nan                       # average number of cycles each access was blocked
system.cpu3.icache.avg_blocked_cycles::no_targets          nan                       # average number of cycles each access was blocked
system.cpu3.icache.fast_writes                      0                       # number of fast writes performed
system.cpu3.icache.cache_copies                     0                       # number of cache copies performed
system.cpu3.icache.ReadReq_mshr_hits::switch_cpus3.inst           13                       # number of ReadReq MSHR hits
system.cpu3.icache.ReadReq_mshr_hits::total           13                       # number of ReadReq MSHR hits
system.cpu3.icache.demand_mshr_hits::switch_cpus3.inst           13                       # number of demand (read+write) MSHR hits
system.cpu3.icache.demand_mshr_hits::total           13                       # number of demand (read+write) MSHR hits
system.cpu3.icache.overall_mshr_hits::switch_cpus3.inst           13                       # number of overall MSHR hits
system.cpu3.icache.overall_mshr_hits::total           13                       # number of overall MSHR hits
system.cpu3.icache.ReadReq_mshr_misses::switch_cpus3.inst           41                       # number of ReadReq MSHR misses
system.cpu3.icache.ReadReq_mshr_misses::total           41                       # number of ReadReq MSHR misses
system.cpu3.icache.demand_mshr_misses::switch_cpus3.inst           41                       # number of demand (read+write) MSHR misses
system.cpu3.icache.demand_mshr_misses::total           41                       # number of demand (read+write) MSHR misses
system.cpu3.icache.overall_mshr_misses::switch_cpus3.inst           41                       # number of overall MSHR misses
system.cpu3.icache.overall_mshr_misses::total           41                       # number of overall MSHR misses
system.cpu3.icache.ReadReq_mshr_miss_latency::switch_cpus3.inst      2463868                       # number of ReadReq MSHR miss cycles
system.cpu3.icache.ReadReq_mshr_miss_latency::total      2463868                       # number of ReadReq MSHR miss cycles
system.cpu3.icache.demand_mshr_miss_latency::switch_cpus3.inst      2463868                       # number of demand (read+write) MSHR miss cycles
system.cpu3.icache.demand_mshr_miss_latency::total      2463868                       # number of demand (read+write) MSHR miss cycles
system.cpu3.icache.overall_mshr_miss_latency::switch_cpus3.inst      2463868                       # number of overall MSHR miss cycles
system.cpu3.icache.overall_mshr_miss_latency::total      2463868                       # number of overall MSHR miss cycles
system.cpu3.icache.ReadReq_mshr_miss_rate::switch_cpus3.inst     0.000029                       # mshr miss rate for ReadReq accesses
system.cpu3.icache.ReadReq_mshr_miss_rate::total     0.000029                       # mshr miss rate for ReadReq accesses
system.cpu3.icache.demand_mshr_miss_rate::switch_cpus3.inst     0.000029                       # mshr miss rate for demand accesses
system.cpu3.icache.demand_mshr_miss_rate::total     0.000029                       # mshr miss rate for demand accesses
system.cpu3.icache.overall_mshr_miss_rate::switch_cpus3.inst     0.000029                       # mshr miss rate for overall accesses
system.cpu3.icache.overall_mshr_miss_rate::total     0.000029                       # mshr miss rate for overall accesses
system.cpu3.icache.ReadReq_avg_mshr_miss_latency::switch_cpus3.inst 60094.341463                       # average ReadReq mshr miss latency
system.cpu3.icache.ReadReq_avg_mshr_miss_latency::total 60094.341463                       # average ReadReq mshr miss latency
system.cpu3.icache.demand_avg_mshr_miss_latency::switch_cpus3.inst 60094.341463                       # average overall mshr miss latency
system.cpu3.icache.demand_avg_mshr_miss_latency::total 60094.341463                       # average overall mshr miss latency
system.cpu3.icache.overall_avg_mshr_miss_latency::switch_cpus3.inst 60094.341463                       # average overall mshr miss latency
system.cpu3.icache.overall_avg_mshr_miss_latency::total 60094.341463                       # average overall mshr miss latency
system.cpu3.icache.no_allocate_misses               0                       # Number of misses that were no-allocate
system.cpu3.dcache.replacements                  5242                       # number of replacements
system.cpu3.dcache.tagsinuse                      256                       # Cycle average of tags in use
system.cpu3.dcache.total_refs               170693594                       # Total number of references to valid blocks.
system.cpu3.dcache.sampled_refs                  5498                       # Sample count of references to valid blocks.
system.cpu3.dcache.avg_refs              31046.488541                       # Average number of references to valid blocks.
system.cpu3.dcache.warmup_cycle                     0                       # Cycle when the warmup percentage was hit.
system.cpu3.dcache.occ_blocks::switch_cpus3.data   225.276119                       # Average occupied blocks per requestor
system.cpu3.dcache.occ_blocks::cpu3.data    30.723881                       # Average occupied blocks per requestor
system.cpu3.dcache.occ_percent::switch_cpus3.data     0.879985                       # Average percentage of cache occupancy
system.cpu3.dcache.occ_percent::cpu3.data     0.120015                       # Average percentage of cache occupancy
system.cpu3.dcache.occ_percent::total               1                       # Average percentage of cache occupancy
system.cpu3.dcache.ReadReq_hits::switch_cpus3.data       988806                       # number of ReadReq hits
system.cpu3.dcache.ReadReq_hits::total         988806                       # number of ReadReq hits
system.cpu3.dcache.WriteReq_hits::switch_cpus3.data       673925                       # number of WriteReq hits
system.cpu3.dcache.WriteReq_hits::total        673925                       # number of WriteReq hits
system.cpu3.dcache.LoadLockedReq_hits::switch_cpus3.data         1787                       # number of LoadLockedReq hits
system.cpu3.dcache.LoadLockedReq_hits::total         1787                       # number of LoadLockedReq hits
system.cpu3.dcache.StoreCondReq_hits::switch_cpus3.data         1586                       # number of StoreCondReq hits
system.cpu3.dcache.StoreCondReq_hits::total         1586                       # number of StoreCondReq hits
system.cpu3.dcache.demand_hits::switch_cpus3.data      1662731                       # number of demand (read+write) hits
system.cpu3.dcache.demand_hits::total         1662731                       # number of demand (read+write) hits
system.cpu3.dcache.overall_hits::switch_cpus3.data      1662731                       # number of overall hits
system.cpu3.dcache.overall_hits::total        1662731                       # number of overall hits
system.cpu3.dcache.ReadReq_misses::switch_cpus3.data        13389                       # number of ReadReq misses
system.cpu3.dcache.ReadReq_misses::total        13389                       # number of ReadReq misses
system.cpu3.dcache.WriteReq_misses::switch_cpus3.data          364                       # number of WriteReq misses
system.cpu3.dcache.WriteReq_misses::total          364                       # number of WriteReq misses
system.cpu3.dcache.demand_misses::switch_cpus3.data        13753                       # number of demand (read+write) misses
system.cpu3.dcache.demand_misses::total         13753                       # number of demand (read+write) misses
system.cpu3.dcache.overall_misses::switch_cpus3.data        13753                       # number of overall misses
system.cpu3.dcache.overall_misses::total        13753                       # number of overall misses
system.cpu3.dcache.ReadReq_miss_latency::switch_cpus3.data    474178222                       # number of ReadReq miss cycles
system.cpu3.dcache.ReadReq_miss_latency::total    474178222                       # number of ReadReq miss cycles
system.cpu3.dcache.WriteReq_miss_latency::switch_cpus3.data     18108114                       # number of WriteReq miss cycles
system.cpu3.dcache.WriteReq_miss_latency::total     18108114                       # number of WriteReq miss cycles
system.cpu3.dcache.demand_miss_latency::switch_cpus3.data    492286336                       # number of demand (read+write) miss cycles
system.cpu3.dcache.demand_miss_latency::total    492286336                       # number of demand (read+write) miss cycles
system.cpu3.dcache.overall_miss_latency::switch_cpus3.data    492286336                       # number of overall miss cycles
system.cpu3.dcache.overall_miss_latency::total    492286336                       # number of overall miss cycles
system.cpu3.dcache.ReadReq_accesses::switch_cpus3.data      1002195                       # number of ReadReq accesses(hits+misses)
system.cpu3.dcache.ReadReq_accesses::total      1002195                       # number of ReadReq accesses(hits+misses)
system.cpu3.dcache.WriteReq_accesses::switch_cpus3.data       674289                       # number of WriteReq accesses(hits+misses)
system.cpu3.dcache.WriteReq_accesses::total       674289                       # number of WriteReq accesses(hits+misses)
system.cpu3.dcache.LoadLockedReq_accesses::switch_cpus3.data         1787                       # number of LoadLockedReq accesses(hits+misses)
system.cpu3.dcache.LoadLockedReq_accesses::total         1787                       # number of LoadLockedReq accesses(hits+misses)
system.cpu3.dcache.StoreCondReq_accesses::switch_cpus3.data         1586                       # number of StoreCondReq accesses(hits+misses)
system.cpu3.dcache.StoreCondReq_accesses::total         1586                       # number of StoreCondReq accesses(hits+misses)
system.cpu3.dcache.demand_accesses::switch_cpus3.data      1676484                       # number of demand (read+write) accesses
system.cpu3.dcache.demand_accesses::total      1676484                       # number of demand (read+write) accesses
system.cpu3.dcache.overall_accesses::switch_cpus3.data      1676484                       # number of overall (read+write) accesses
system.cpu3.dcache.overall_accesses::total      1676484                       # number of overall (read+write) accesses
system.cpu3.dcache.ReadReq_miss_rate::switch_cpus3.data     0.013360                       # miss rate for ReadReq accesses
system.cpu3.dcache.ReadReq_miss_rate::total     0.013360                       # miss rate for ReadReq accesses
system.cpu3.dcache.WriteReq_miss_rate::switch_cpus3.data     0.000540                       # miss rate for WriteReq accesses
system.cpu3.dcache.WriteReq_miss_rate::total     0.000540                       # miss rate for WriteReq accesses
system.cpu3.dcache.demand_miss_rate::switch_cpus3.data     0.008203                       # miss rate for demand accesses
system.cpu3.dcache.demand_miss_rate::total     0.008203                       # miss rate for demand accesses
system.cpu3.dcache.overall_miss_rate::switch_cpus3.data     0.008203                       # miss rate for overall accesses
system.cpu3.dcache.overall_miss_rate::total     0.008203                       # miss rate for overall accesses
system.cpu3.dcache.ReadReq_avg_miss_latency::switch_cpus3.data 35415.506909                       # average ReadReq miss latency
system.cpu3.dcache.ReadReq_avg_miss_latency::total 35415.506909                       # average ReadReq miss latency
system.cpu3.dcache.WriteReq_avg_miss_latency::switch_cpus3.data 49747.565934                       # average WriteReq miss latency
system.cpu3.dcache.WriteReq_avg_miss_latency::total 49747.565934                       # average WriteReq miss latency
system.cpu3.dcache.demand_avg_miss_latency::switch_cpus3.data 35794.832836                       # average overall miss latency
system.cpu3.dcache.demand_avg_miss_latency::total 35794.832836                       # average overall miss latency
system.cpu3.dcache.overall_avg_miss_latency::switch_cpus3.data 35794.832836                       # average overall miss latency
system.cpu3.dcache.overall_avg_miss_latency::total 35794.832836                       # average overall miss latency
system.cpu3.dcache.blocked_cycles::no_mshrs            0                       # number of cycles access was blocked
system.cpu3.dcache.blocked_cycles::no_targets       113449                       # number of cycles access was blocked
system.cpu3.dcache.blocked::no_mshrs                0                       # number of cycles access was blocked
system.cpu3.dcache.blocked::no_targets              2                       # number of cycles access was blocked
system.cpu3.dcache.avg_blocked_cycles::no_mshrs          nan                       # average number of cycles each access was blocked
system.cpu3.dcache.avg_blocked_cycles::no_targets 56724.500000                       # average number of cycles each access was blocked
system.cpu3.dcache.fast_writes                      0                       # number of fast writes performed
system.cpu3.dcache.cache_copies                     0                       # number of cache copies performed
system.cpu3.dcache.writebacks::writebacks         2404                       # number of writebacks
system.cpu3.dcache.writebacks::total             2404                       # number of writebacks
system.cpu3.dcache.ReadReq_mshr_hits::switch_cpus3.data         8195                       # number of ReadReq MSHR hits
system.cpu3.dcache.ReadReq_mshr_hits::total         8195                       # number of ReadReq MSHR hits
system.cpu3.dcache.WriteReq_mshr_hits::switch_cpus3.data          316                       # number of WriteReq MSHR hits
system.cpu3.dcache.WriteReq_mshr_hits::total          316                       # number of WriteReq MSHR hits
system.cpu3.dcache.demand_mshr_hits::switch_cpus3.data         8511                       # number of demand (read+write) MSHR hits
system.cpu3.dcache.demand_mshr_hits::total         8511                       # number of demand (read+write) MSHR hits
system.cpu3.dcache.overall_mshr_hits::switch_cpus3.data         8511                       # number of overall MSHR hits
system.cpu3.dcache.overall_mshr_hits::total         8511                       # number of overall MSHR hits
system.cpu3.dcache.ReadReq_mshr_misses::switch_cpus3.data         5194                       # number of ReadReq MSHR misses
system.cpu3.dcache.ReadReq_mshr_misses::total         5194                       # number of ReadReq MSHR misses
system.cpu3.dcache.WriteReq_mshr_misses::switch_cpus3.data           48                       # number of WriteReq MSHR misses
system.cpu3.dcache.WriteReq_mshr_misses::total           48                       # number of WriteReq MSHR misses
system.cpu3.dcache.demand_mshr_misses::switch_cpus3.data         5242                       # number of demand (read+write) MSHR misses
system.cpu3.dcache.demand_mshr_misses::total         5242                       # number of demand (read+write) MSHR misses
system.cpu3.dcache.overall_mshr_misses::switch_cpus3.data         5242                       # number of overall MSHR misses
system.cpu3.dcache.overall_mshr_misses::total         5242                       # number of overall MSHR misses
system.cpu3.dcache.ReadReq_mshr_miss_latency::switch_cpus3.data     94458317                       # number of ReadReq MSHR miss cycles
system.cpu3.dcache.ReadReq_mshr_miss_latency::total     94458317                       # number of ReadReq MSHR miss cycles
system.cpu3.dcache.WriteReq_mshr_miss_latency::switch_cpus3.data      1121343                       # number of WriteReq MSHR miss cycles
system.cpu3.dcache.WriteReq_mshr_miss_latency::total      1121343                       # number of WriteReq MSHR miss cycles
system.cpu3.dcache.demand_mshr_miss_latency::switch_cpus3.data     95579660                       # number of demand (read+write) MSHR miss cycles
system.cpu3.dcache.demand_mshr_miss_latency::total     95579660                       # number of demand (read+write) MSHR miss cycles
system.cpu3.dcache.overall_mshr_miss_latency::switch_cpus3.data     95579660                       # number of overall MSHR miss cycles
system.cpu3.dcache.overall_mshr_miss_latency::total     95579660                       # number of overall MSHR miss cycles
system.cpu3.dcache.ReadReq_mshr_miss_rate::switch_cpus3.data     0.005183                       # mshr miss rate for ReadReq accesses
system.cpu3.dcache.ReadReq_mshr_miss_rate::total     0.005183                       # mshr miss rate for ReadReq accesses
system.cpu3.dcache.WriteReq_mshr_miss_rate::switch_cpus3.data     0.000071                       # mshr miss rate for WriteReq accesses
system.cpu3.dcache.WriteReq_mshr_miss_rate::total     0.000071                       # mshr miss rate for WriteReq accesses
system.cpu3.dcache.demand_mshr_miss_rate::switch_cpus3.data     0.003127                       # mshr miss rate for demand accesses
system.cpu3.dcache.demand_mshr_miss_rate::total     0.003127                       # mshr miss rate for demand accesses
system.cpu3.dcache.overall_mshr_miss_rate::switch_cpus3.data     0.003127                       # mshr miss rate for overall accesses
system.cpu3.dcache.overall_mshr_miss_rate::total     0.003127                       # mshr miss rate for overall accesses
system.cpu3.dcache.ReadReq_avg_mshr_miss_latency::switch_cpus3.data 18186.044859                       # average ReadReq mshr miss latency
system.cpu3.dcache.ReadReq_avg_mshr_miss_latency::total 18186.044859                       # average ReadReq mshr miss latency
system.cpu3.dcache.WriteReq_avg_mshr_miss_latency::switch_cpus3.data 23361.312500                       # average WriteReq mshr miss latency
system.cpu3.dcache.WriteReq_avg_mshr_miss_latency::total 23361.312500                       # average WriteReq mshr miss latency
system.cpu3.dcache.demand_avg_mshr_miss_latency::switch_cpus3.data 18233.433804                       # average overall mshr miss latency
system.cpu3.dcache.demand_avg_mshr_miss_latency::total 18233.433804                       # average overall mshr miss latency
system.cpu3.dcache.overall_avg_mshr_miss_latency::switch_cpus3.data 18233.433804                       # average overall mshr miss latency
system.cpu3.dcache.overall_avg_mshr_miss_latency::total 18233.433804                       # average overall mshr miss latency
system.cpu3.dcache.no_allocate_misses               0                       # Number of misses that were no-allocate

---------- End Simulation Statistics   ----------
