
---------- Begin Simulation Statistics ----------
sim_seconds                                  0.118531                       # Number of seconds simulated
sim_ticks                                118531362649                       # Number of ticks simulated
final_tick                               1176390183962                       # Number of ticks from beginning of simulation (restored from checkpoints and never reset)
sim_freq                                 1000000000000                       # Frequency of simulated ticks
host_inst_rate                                  91199                       # Simulator instruction rate (inst/s)
host_op_rate                                   117348                       # Simulator op (including micro ops) rate (op/s)
host_tick_rate                                2501791                       # Simulator tick rate (ticks/s)
host_mem_usage                               16945432                       # Number of bytes of host memory used
host_seconds                                 47378.61                       # Real time elapsed on the host
sim_insts                                  4320866101                       # Number of instructions simulated
sim_ops                                    5559786236                       # Number of ops (including micro ops) simulated
system.physmem.bytes_read::switch_cpus0.inst         1280                       # Number of bytes read from this memory
system.physmem.bytes_read::switch_cpus0.data       908032                       # Number of bytes read from this memory
system.physmem.bytes_read::switch_cpus1.inst         1664                       # Number of bytes read from this memory
system.physmem.bytes_read::switch_cpus1.data       968320                       # Number of bytes read from this memory
system.physmem.bytes_read::switch_cpus2.inst         1664                       # Number of bytes read from this memory
system.physmem.bytes_read::switch_cpus2.data      1327488                       # Number of bytes read from this memory
system.physmem.bytes_read::switch_cpus3.inst         2048                       # Number of bytes read from this memory
system.physmem.bytes_read::switch_cpus3.data       379136                       # Number of bytes read from this memory
system.physmem.bytes_read::total              3589632                       # Number of bytes read from this memory
system.physmem.bytes_inst_read::switch_cpus0.inst         1280                       # Number of instructions bytes read from this memory
system.physmem.bytes_inst_read::switch_cpus1.inst         1664                       # Number of instructions bytes read from this memory
system.physmem.bytes_inst_read::switch_cpus2.inst         1664                       # Number of instructions bytes read from this memory
system.physmem.bytes_inst_read::switch_cpus3.inst         2048                       # Number of instructions bytes read from this memory
system.physmem.bytes_inst_read::total            6656                       # Number of instructions bytes read from this memory
system.physmem.bytes_written::writebacks      2428416                       # Number of bytes written to this memory
system.physmem.bytes_written::total           2428416                       # Number of bytes written to this memory
system.physmem.num_reads::switch_cpus0.inst           10                       # Number of read requests responded to by this memory
system.physmem.num_reads::switch_cpus0.data         7094                       # Number of read requests responded to by this memory
system.physmem.num_reads::switch_cpus1.inst           13                       # Number of read requests responded to by this memory
system.physmem.num_reads::switch_cpus1.data         7565                       # Number of read requests responded to by this memory
system.physmem.num_reads::switch_cpus2.inst           13                       # Number of read requests responded to by this memory
system.physmem.num_reads::switch_cpus2.data        10371                       # Number of read requests responded to by this memory
system.physmem.num_reads::switch_cpus3.inst           16                       # Number of read requests responded to by this memory
system.physmem.num_reads::switch_cpus3.data         2962                       # Number of read requests responded to by this memory
system.physmem.num_reads::total                 28044                       # Number of read requests responded to by this memory
system.physmem.num_writes::writebacks           18972                       # Number of write requests responded to by this memory
system.physmem.num_writes::functional               0                       # Number of write requests responded to by this memory
system.physmem.num_writes::interrupt                0                       # Number of write requests responded to by this memory
system.physmem.num_writes::switch_cpus0.dtb.walker            0                       # Number of write requests responded to by this memory
system.physmem.num_writes::switch_cpus0.itb.walker            0                       # Number of write requests responded to by this memory
system.physmem.num_writes::switch_cpus0.inst            0                       # Number of write requests responded to by this memory
system.physmem.num_writes::switch_cpus0.data            0                       # Number of write requests responded to by this memory
system.physmem.num_writes::switch_cpus1.dtb.walker            0                       # Number of write requests responded to by this memory
system.physmem.num_writes::switch_cpus1.itb.walker            0                       # Number of write requests responded to by this memory
system.physmem.num_writes::switch_cpus1.inst            0                       # Number of write requests responded to by this memory
system.physmem.num_writes::switch_cpus1.data            0                       # Number of write requests responded to by this memory
system.physmem.num_writes::switch_cpus2.dtb.walker            0                       # Number of write requests responded to by this memory
system.physmem.num_writes::switch_cpus2.itb.walker            0                       # Number of write requests responded to by this memory
system.physmem.num_writes::switch_cpus2.inst            0                       # Number of write requests responded to by this memory
system.physmem.num_writes::switch_cpus2.data            0                       # Number of write requests responded to by this memory
system.physmem.num_writes::switch_cpus3.dtb.walker            0                       # Number of write requests responded to by this memory
system.physmem.num_writes::switch_cpus3.itb.walker            0                       # Number of write requests responded to by this memory
system.physmem.num_writes::switch_cpus3.inst            0                       # Number of write requests responded to by this memory
system.physmem.num_writes::switch_cpus3.data            0                       # Number of write requests responded to by this memory
system.physmem.num_writes::cpu0.dtb.walker            0                       # Number of write requests responded to by this memory
system.physmem.num_writes::cpu0.itb.walker            0                       # Number of write requests responded to by this memory
system.physmem.num_writes::cpu0.inst                0                       # Number of write requests responded to by this memory
system.physmem.num_writes::cpu0.data                0                       # Number of write requests responded to by this memory
system.physmem.num_writes::cpu1.dtb.walker            0                       # Number of write requests responded to by this memory
system.physmem.num_writes::cpu1.itb.walker            0                       # Number of write requests responded to by this memory
system.physmem.num_writes::cpu1.inst                0                       # Number of write requests responded to by this memory
system.physmem.num_writes::cpu1.data                0                       # Number of write requests responded to by this memory
system.physmem.num_writes::cpu2.dtb.walker            0                       # Number of write requests responded to by this memory
system.physmem.num_writes::cpu2.itb.walker            0                       # Number of write requests responded to by this memory
system.physmem.num_writes::cpu2.inst                0                       # Number of write requests responded to by this memory
system.physmem.num_writes::cpu2.data                0                       # Number of write requests responded to by this memory
system.physmem.num_writes::cpu3.dtb.walker            0                       # Number of write requests responded to by this memory
system.physmem.num_writes::cpu3.itb.walker            0                       # Number of write requests responded to by this memory
system.physmem.num_writes::cpu3.inst                0                       # Number of write requests responded to by this memory
system.physmem.num_writes::cpu3.data                0                       # Number of write requests responded to by this memory
system.physmem.num_writes::total                18972                       # Number of write requests responded to by this memory
system.physmem.bw_read::switch_cpus0.inst        10799                       # Total read bandwidth from this memory (bytes/s)
system.physmem.bw_read::switch_cpus0.data      7660690                       # Total read bandwidth from this memory (bytes/s)
system.physmem.bw_read::switch_cpus1.inst        14038                       # Total read bandwidth from this memory (bytes/s)
system.physmem.bw_read::switch_cpus1.data      8169315                       # Total read bandwidth from this memory (bytes/s)
system.physmem.bw_read::switch_cpus2.inst        14038                       # Total read bandwidth from this memory (bytes/s)
system.physmem.bw_read::switch_cpus2.data     11199466                       # Total read bandwidth from this memory (bytes/s)
system.physmem.bw_read::switch_cpus3.inst        17278                       # Total read bandwidth from this memory (bytes/s)
system.physmem.bw_read::switch_cpus3.data      3198613                       # Total read bandwidth from this memory (bytes/s)
system.physmem.bw_read::total                30284238                       # Total read bandwidth from this memory (bytes/s)
system.physmem.bw_inst_read::switch_cpus0.inst        10799                       # Instruction read bandwidth from this memory (bytes/s)
system.physmem.bw_inst_read::switch_cpus1.inst        14038                       # Instruction read bandwidth from this memory (bytes/s)
system.physmem.bw_inst_read::switch_cpus2.inst        14038                       # Instruction read bandwidth from this memory (bytes/s)
system.physmem.bw_inst_read::switch_cpus3.inst        17278                       # Instruction read bandwidth from this memory (bytes/s)
system.physmem.bw_inst_read::total              56154                       # Instruction read bandwidth from this memory (bytes/s)
system.physmem.bw_write::writebacks          20487540                       # Write bandwidth from this memory (bytes/s)
system.physmem.bw_write::total               20487540                       # Write bandwidth from this memory (bytes/s)
system.physmem.bw_total::writebacks          20487540                       # Total bandwidth to/from this memory (bytes/s)
system.physmem.bw_total::switch_cpus0.inst        10799                       # Total bandwidth to/from this memory (bytes/s)
system.physmem.bw_total::switch_cpus0.data      7660690                       # Total bandwidth to/from this memory (bytes/s)
system.physmem.bw_total::switch_cpus1.inst        14038                       # Total bandwidth to/from this memory (bytes/s)
system.physmem.bw_total::switch_cpus1.data      8169315                       # Total bandwidth to/from this memory (bytes/s)
system.physmem.bw_total::switch_cpus2.inst        14038                       # Total bandwidth to/from this memory (bytes/s)
system.physmem.bw_total::switch_cpus2.data     11199466                       # Total bandwidth to/from this memory (bytes/s)
system.physmem.bw_total::switch_cpus3.inst        17278                       # Total bandwidth to/from this memory (bytes/s)
system.physmem.bw_total::switch_cpus3.data      3198613                       # Total bandwidth to/from this memory (bytes/s)
system.physmem.bw_total::total               50771778                       # Total bandwidth to/from this memory (bytes/s)
system.switch_cpus0.dtb.inst_hits                   0                       # ITB inst hits
system.switch_cpus0.dtb.inst_misses                 0                       # ITB inst misses
system.switch_cpus0.dtb.read_hits                   0                       # DTB read hits
system.switch_cpus0.dtb.read_misses                 0                       # DTB read misses
system.switch_cpus0.dtb.write_hits                  0                       # DTB write hits
system.switch_cpus0.dtb.write_misses                0                       # DTB write misses
system.switch_cpus0.dtb.flush_tlb                   0                       # Number of times complete TLB was flushed
system.switch_cpus0.dtb.flush_tlb_mva               0                       # Number of times TLB was flushed by MVA
system.switch_cpus0.dtb.flush_tlb_mva_asid            0                       # Number of times TLB was flushed by MVA & ASID
system.switch_cpus0.dtb.flush_tlb_asid              0                       # Number of times TLB was flushed by ASID
system.switch_cpus0.dtb.flush_entries               0                       # Number of entries that have been flushed from TLB
system.switch_cpus0.dtb.align_faults                0                       # Number of TLB faults due to alignment restrictions
system.switch_cpus0.dtb.prefetch_faults             0                       # Number of TLB faults due to prefetch
system.switch_cpus0.dtb.domain_faults               0                       # Number of TLB faults due to domain restrictions
system.switch_cpus0.dtb.perms_faults                0                       # Number of TLB faults due to permissions restrictions
system.switch_cpus0.dtb.read_accesses               0                       # DTB read accesses
system.switch_cpus0.dtb.write_accesses              0                       # DTB write accesses
system.switch_cpus0.dtb.inst_accesses               0                       # ITB inst accesses
system.switch_cpus0.dtb.hits                        0                       # DTB hits
system.switch_cpus0.dtb.misses                      0                       # DTB misses
system.switch_cpus0.dtb.accesses                    0                       # DTB accesses
system.switch_cpus0.itb.inst_hits                   0                       # ITB inst hits
system.switch_cpus0.itb.inst_misses                 0                       # ITB inst misses
system.switch_cpus0.itb.read_hits                   0                       # DTB read hits
system.switch_cpus0.itb.read_misses                 0                       # DTB read misses
system.switch_cpus0.itb.write_hits                  0                       # DTB write hits
system.switch_cpus0.itb.write_misses                0                       # DTB write misses
system.switch_cpus0.itb.flush_tlb                   0                       # Number of times complete TLB was flushed
system.switch_cpus0.itb.flush_tlb_mva               0                       # Number of times TLB was flushed by MVA
system.switch_cpus0.itb.flush_tlb_mva_asid            0                       # Number of times TLB was flushed by MVA & ASID
system.switch_cpus0.itb.flush_tlb_asid              0                       # Number of times TLB was flushed by ASID
system.switch_cpus0.itb.flush_entries               0                       # Number of entries that have been flushed from TLB
system.switch_cpus0.itb.align_faults                0                       # Number of TLB faults due to alignment restrictions
system.switch_cpus0.itb.prefetch_faults             0                       # Number of TLB faults due to prefetch
system.switch_cpus0.itb.domain_faults               0                       # Number of TLB faults due to domain restrictions
system.switch_cpus0.itb.perms_faults                0                       # Number of TLB faults due to permissions restrictions
system.switch_cpus0.itb.read_accesses               0                       # DTB read accesses
system.switch_cpus0.itb.write_accesses              0                       # DTB write accesses
system.switch_cpus0.itb.inst_accesses               0                       # ITB inst accesses
system.switch_cpus0.itb.hits                        0                       # DTB hits
system.switch_cpus0.itb.misses                      0                       # DTB misses
system.switch_cpus0.itb.accesses                    0                       # DTB accesses
system.cpu0.workload.num_syscalls                   0                       # Number of system calls
system.switch_cpus0.numCycles               142294554                       # number of cpu cycles simulated
system.switch_cpus0.numWorkItemsStarted             0                       # number of work items this cpu started
system.switch_cpus0.numWorkItemsCompleted            0                       # number of work items this cpu completed
system.switch_cpus0.BPredUnit.lookups        23165868                       # Number of BP lookups
system.switch_cpus0.BPredUnit.condPredicted     19076244                       # Number of conditional branches predicted
system.switch_cpus0.BPredUnit.condIncorrect      1931101                       # Number of conditional branches incorrect
system.switch_cpus0.BPredUnit.BTBLookups      9376164                       # Number of BTB lookups
system.switch_cpus0.BPredUnit.BTBHits         8667588                       # Number of BTB hits
system.switch_cpus0.BPredUnit.BTBCorrect            0                       # Number of correct BTB predictions (this stat may not work properly.
system.switch_cpus0.BPredUnit.usedRAS         2436825                       # Number of times the RAS was used to get a target.
system.switch_cpus0.BPredUnit.RASInCorrect        87670                       # Number of incorrect RAS predictions.
system.switch_cpus0.fetch.icacheStallCycles    104443296                       # Number of cycles fetch is stalled on an Icache miss
system.switch_cpus0.fetch.Insts             127988159                       # Number of instructions fetch has processed
system.switch_cpus0.fetch.Branches           23165868                       # Number of branches that fetch encountered
system.switch_cpus0.fetch.predictedBranches     11104413                       # Number of branches that fetch has predicted taken
system.switch_cpus0.fetch.Cycles             27182388                       # Number of cycles fetch has run and was not squashing or blocked
system.switch_cpus0.fetch.SquashCycles        6251072                       # Number of cycles fetch has spent squashing
system.switch_cpus0.fetch.BlockedCycles       4519252                       # Number of cycles fetch has spent blocked
system.switch_cpus0.fetch.CacheLines         12100252                       # Number of cache lines fetched
system.switch_cpus0.fetch.IcacheSquashes      1573102                       # Number of outstanding Icache misses that were squashed
system.switch_cpus0.fetch.rateDist::samples    140432907                       # Number of instructions fetched each cycle (Total)
system.switch_cpus0.fetch.rateDist::mean     1.110256                       # Number of instructions fetched each cycle (Total)
system.switch_cpus0.fetch.rateDist::stdev     2.551584                       # Number of instructions fetched each cycle (Total)
system.switch_cpus0.fetch.rateDist::underflows            0      0.00%      0.00% # Number of instructions fetched each cycle (Total)
system.switch_cpus0.fetch.rateDist::0       113250519     80.64%     80.64% # Number of instructions fetched each cycle (Total)
system.switch_cpus0.fetch.rateDist::1         2782555      1.98%     82.63% # Number of instructions fetched each cycle (Total)
system.switch_cpus0.fetch.rateDist::2         2360643      1.68%     84.31% # Number of instructions fetched each cycle (Total)
system.switch_cpus0.fetch.rateDist::3         2378725      1.69%     86.00% # Number of instructions fetched each cycle (Total)
system.switch_cpus0.fetch.rateDist::4         2276129      1.62%     87.62% # Number of instructions fetched each cycle (Total)
system.switch_cpus0.fetch.rateDist::5         1123721      0.80%     88.42% # Number of instructions fetched each cycle (Total)
system.switch_cpus0.fetch.rateDist::6          777906      0.55%     88.98% # Number of instructions fetched each cycle (Total)
system.switch_cpus0.fetch.rateDist::7         1975714      1.41%     90.38% # Number of instructions fetched each cycle (Total)
system.switch_cpus0.fetch.rateDist::8        13506995      9.62%    100.00% # Number of instructions fetched each cycle (Total)
system.switch_cpus0.fetch.rateDist::overflows            0      0.00%    100.00% # Number of instructions fetched each cycle (Total)
system.switch_cpus0.fetch.rateDist::min_value            0                       # Number of instructions fetched each cycle (Total)
system.switch_cpus0.fetch.rateDist::max_value            8                       # Number of instructions fetched each cycle (Total)
system.switch_cpus0.fetch.rateDist::total    140432907                       # Number of instructions fetched each cycle (Total)
system.switch_cpus0.fetch.branchRate         0.162802                       # Number of branch fetches per cycle
system.switch_cpus0.fetch.rate               0.899459                       # Number of inst fetches per cycle
system.switch_cpus0.decode.IdleCycles       103278557                       # Number of cycles decode is idle
system.switch_cpus0.decode.BlockedCycles      5929211                       # Number of cycles decode is blocked
system.switch_cpus0.decode.RunCycles         26834386                       # Number of cycles decode is running
system.switch_cpus0.decode.UnblockCycles       109240                       # Number of cycles decode is unblocking
system.switch_cpus0.decode.SquashCycles       4281504                       # Number of cycles decode is squashing
system.switch_cpus0.decode.BranchResolved      3730606                       # Number of times decode resolved a branch
system.switch_cpus0.decode.BranchMispred         6468                       # Number of times decode detected a branch misprediction
system.switch_cpus0.decode.DecodedInsts     154383735                       # Number of instructions handled by decode
system.switch_cpus0.decode.SquashedInsts        51202                       # Number of squashed instructions handled by decode
system.switch_cpus0.rename.SquashCycles       4281504                       # Number of cycles rename is squashing
system.switch_cpus0.rename.IdleCycles       103793738                       # Number of cycles rename is idle
system.switch_cpus0.rename.BlockCycles        3471035                       # Number of cycles rename is blocking
system.switch_cpus0.rename.serializeStallCycles      1309695                       # count of cycles rename stalled for serializing inst
system.switch_cpus0.rename.RunCycles         26417759                       # Number of cycles rename is running
system.switch_cpus0.rename.UnblockCycles      1159168                       # Number of cycles rename is unblocking
system.switch_cpus0.rename.RenamedInsts     152934882                       # Number of instructions processed by rename
system.switch_cpus0.rename.ROBFullEvents          596                       # Number of times rename has blocked due to ROB full
system.switch_cpus0.rename.IQFullEvents        401802                       # Number of times rename has blocked due to IQ full
system.switch_cpus0.rename.LSQFullEvents       621006                       # Number of times rename has blocked due to LSQ full
system.switch_cpus0.rename.FullRegisterEvents         8735                       # Number of times there has been no free registers
system.switch_cpus0.rename.RenamedOperands    213959760                       # Number of destination operands rename has renamed
system.switch_cpus0.rename.RenameLookups    712847404                       # Number of register rename lookups that rename has made
system.switch_cpus0.rename.int_rename_lookups    712847404                       # Number of integer rename lookups
system.switch_cpus0.rename.CommittedMaps    168259218                       # Number of HB maps that are committed
system.switch_cpus0.rename.UndoneMaps        45700535                       # Number of HB maps that are undone due to squashing
system.switch_cpus0.rename.serializingInsts        33940                       # count of serializing insts renamed
system.switch_cpus0.rename.tempSerializingInsts        17918                       # count of temporary serializing insts renamed
system.switch_cpus0.rename.skidInsts          3794507                       # count of insts added to the skid buffer
system.switch_cpus0.memDep0.insertedLoads     15179730                       # Number of loads inserted to the mem dependence unit.
system.switch_cpus0.memDep0.insertedStores      7901857                       # Number of stores inserted to the mem dependence unit.
system.switch_cpus0.memDep0.conflictingLoads       308507                       # Number of conflicting loads.
system.switch_cpus0.memDep0.conflictingStores      1697776                       # Number of conflicting stores.
system.switch_cpus0.iq.iqInstsAdded         149067296                       # Number of instructions added to the IQ (excludes non-spec)
system.switch_cpus0.iq.iqNonSpecInstsAdded        33939                       # Number of non-speculative instructions added to the IQ
system.switch_cpus0.iq.iqInstsIssued        139149897                       # Number of instructions issued
system.switch_cpus0.iq.iqSquashedInstsIssued       107250                       # Number of squashed instructions issued
system.switch_cpus0.iq.iqSquashedInstsExamined     25129474                       # Number of squashed instructions iterated over during squash; mainly for profiling
system.switch_cpus0.iq.iqSquashedOperandsExamined     57046727                       # Number of squashed operands that are examined and possibly removed from graph
system.switch_cpus0.iq.iqSquashedNonSpecRemoved         1895                       # Number of squashed non-spec instructions that were removed
system.switch_cpus0.iq.issued_per_cycle::samples    140432907                       # Number of insts issued each cycle
system.switch_cpus0.iq.issued_per_cycle::mean     0.990864                       # Number of insts issued each cycle
system.switch_cpus0.iq.issued_per_cycle::stdev     1.586020                       # Number of insts issued each cycle
system.switch_cpus0.iq.issued_per_cycle::underflows            0      0.00%      0.00% # Number of insts issued each cycle
system.switch_cpus0.iq.issued_per_cycle::0     83080094     59.16%     59.16% # Number of insts issued each cycle
system.switch_cpus0.iq.issued_per_cycle::1     23712403     16.89%     76.05% # Number of insts issued each cycle
system.switch_cpus0.iq.issued_per_cycle::2     11947069      8.51%     84.55% # Number of insts issued each cycle
system.switch_cpus0.iq.issued_per_cycle::3      7805507      5.56%     90.11% # Number of insts issued each cycle
system.switch_cpus0.iq.issued_per_cycle::4      6903339      4.92%     95.03% # Number of insts issued each cycle
system.switch_cpus0.iq.issued_per_cycle::5      2705180      1.93%     96.95% # Number of insts issued each cycle
system.switch_cpus0.iq.issued_per_cycle::6      3063322      2.18%     99.13% # Number of insts issued each cycle
system.switch_cpus0.iq.issued_per_cycle::7      1120297      0.80%     99.93% # Number of insts issued each cycle
system.switch_cpus0.iq.issued_per_cycle::8        95696      0.07%    100.00% # Number of insts issued each cycle
system.switch_cpus0.iq.issued_per_cycle::overflows            0      0.00%    100.00% # Number of insts issued each cycle
system.switch_cpus0.iq.issued_per_cycle::min_value            0                       # Number of insts issued each cycle
system.switch_cpus0.iq.issued_per_cycle::max_value            8                       # Number of insts issued each cycle
system.switch_cpus0.iq.issued_per_cycle::total    140432907                       # Number of insts issued each cycle
system.switch_cpus0.iq.fu_full::No_OpClass            0      0.00%      0.00% # attempts to use FU when none available
system.switch_cpus0.iq.fu_full::IntAlu         975795     74.71%     74.71% # attempts to use FU when none available
system.switch_cpus0.iq.fu_full::IntMult             0      0.00%     74.71% # attempts to use FU when none available
system.switch_cpus0.iq.fu_full::IntDiv              0      0.00%     74.71% # attempts to use FU when none available
system.switch_cpus0.iq.fu_full::FloatAdd            0      0.00%     74.71% # attempts to use FU when none available
system.switch_cpus0.iq.fu_full::FloatCmp            0      0.00%     74.71% # attempts to use FU when none available
system.switch_cpus0.iq.fu_full::FloatCvt            0      0.00%     74.71% # attempts to use FU when none available
system.switch_cpus0.iq.fu_full::FloatMult            0      0.00%     74.71% # attempts to use FU when none available
system.switch_cpus0.iq.fu_full::FloatDiv            0      0.00%     74.71% # attempts to use FU when none available
system.switch_cpus0.iq.fu_full::FloatSqrt            0      0.00%     74.71% # attempts to use FU when none available
system.switch_cpus0.iq.fu_full::SimdAdd             0      0.00%     74.71% # attempts to use FU when none available
system.switch_cpus0.iq.fu_full::SimdAddAcc            0      0.00%     74.71% # attempts to use FU when none available
system.switch_cpus0.iq.fu_full::SimdAlu             0      0.00%     74.71% # attempts to use FU when none available
system.switch_cpus0.iq.fu_full::SimdCmp             0      0.00%     74.71% # attempts to use FU when none available
system.switch_cpus0.iq.fu_full::SimdCvt             0      0.00%     74.71% # attempts to use FU when none available
system.switch_cpus0.iq.fu_full::SimdMisc            0      0.00%     74.71% # attempts to use FU when none available
system.switch_cpus0.iq.fu_full::SimdMult            0      0.00%     74.71% # attempts to use FU when none available
system.switch_cpus0.iq.fu_full::SimdMultAcc            0      0.00%     74.71% # attempts to use FU when none available
system.switch_cpus0.iq.fu_full::SimdShift            0      0.00%     74.71% # attempts to use FU when none available
system.switch_cpus0.iq.fu_full::SimdShiftAcc            0      0.00%     74.71% # attempts to use FU when none available
system.switch_cpus0.iq.fu_full::SimdSqrt            0      0.00%     74.71% # attempts to use FU when none available
system.switch_cpus0.iq.fu_full::SimdFloatAdd            0      0.00%     74.71% # attempts to use FU when none available
system.switch_cpus0.iq.fu_full::SimdFloatAlu            0      0.00%     74.71% # attempts to use FU when none available
system.switch_cpus0.iq.fu_full::SimdFloatCmp            0      0.00%     74.71% # attempts to use FU when none available
system.switch_cpus0.iq.fu_full::SimdFloatCvt            0      0.00%     74.71% # attempts to use FU when none available
system.switch_cpus0.iq.fu_full::SimdFloatDiv            0      0.00%     74.71% # attempts to use FU when none available
system.switch_cpus0.iq.fu_full::SimdFloatMisc            0      0.00%     74.71% # attempts to use FU when none available
system.switch_cpus0.iq.fu_full::SimdFloatMult            0      0.00%     74.71% # attempts to use FU when none available
system.switch_cpus0.iq.fu_full::SimdFloatMultAcc            0      0.00%     74.71% # attempts to use FU when none available
system.switch_cpus0.iq.fu_full::SimdFloatSqrt            0      0.00%     74.71% # attempts to use FU when none available
system.switch_cpus0.iq.fu_full::MemRead        157642     12.07%     86.78% # attempts to use FU when none available
system.switch_cpus0.iq.fu_full::MemWrite       172610     13.22%    100.00% # attempts to use FU when none available
system.switch_cpus0.iq.fu_full::IprAccess            0      0.00%    100.00% # attempts to use FU when none available
system.switch_cpus0.iq.fu_full::InstPrefetch            0      0.00%    100.00% # attempts to use FU when none available
system.switch_cpus0.iq.FU_type_0::No_OpClass            0      0.00%      0.00% # Type of FU issued
system.switch_cpus0.iq.FU_type_0::IntAlu    114923493     82.59%     82.59% # Type of FU issued
system.switch_cpus0.iq.FU_type_0::IntMult      2011680      1.45%     84.04% # Type of FU issued
system.switch_cpus0.iq.FU_type_0::IntDiv            0      0.00%     84.04% # Type of FU issued
system.switch_cpus0.iq.FU_type_0::FloatAdd            0      0.00%     84.04% # Type of FU issued
system.switch_cpus0.iq.FU_type_0::FloatCmp            0      0.00%     84.04% # Type of FU issued
system.switch_cpus0.iq.FU_type_0::FloatCvt            0      0.00%     84.04% # Type of FU issued
system.switch_cpus0.iq.FU_type_0::FloatMult            0      0.00%     84.04% # Type of FU issued
system.switch_cpus0.iq.FU_type_0::FloatDiv            0      0.00%     84.04% # Type of FU issued
system.switch_cpus0.iq.FU_type_0::FloatSqrt            0      0.00%     84.04% # Type of FU issued
system.switch_cpus0.iq.FU_type_0::SimdAdd            0      0.00%     84.04% # Type of FU issued
system.switch_cpus0.iq.FU_type_0::SimdAddAcc            0      0.00%     84.04% # Type of FU issued
system.switch_cpus0.iq.FU_type_0::SimdAlu            0      0.00%     84.04% # Type of FU issued
system.switch_cpus0.iq.FU_type_0::SimdCmp            0      0.00%     84.04% # Type of FU issued
system.switch_cpus0.iq.FU_type_0::SimdCvt            0      0.00%     84.04% # Type of FU issued
system.switch_cpus0.iq.FU_type_0::SimdMisc            0      0.00%     84.04% # Type of FU issued
system.switch_cpus0.iq.FU_type_0::SimdMult            0      0.00%     84.04% # Type of FU issued
system.switch_cpus0.iq.FU_type_0::SimdMultAcc            0      0.00%     84.04% # Type of FU issued
system.switch_cpus0.iq.FU_type_0::SimdShift            0      0.00%     84.04% # Type of FU issued
system.switch_cpus0.iq.FU_type_0::SimdShiftAcc            0      0.00%     84.04% # Type of FU issued
system.switch_cpus0.iq.FU_type_0::SimdSqrt            0      0.00%     84.04% # Type of FU issued
system.switch_cpus0.iq.FU_type_0::SimdFloatAdd            0      0.00%     84.04% # Type of FU issued
system.switch_cpus0.iq.FU_type_0::SimdFloatAlu            0      0.00%     84.04% # Type of FU issued
system.switch_cpus0.iq.FU_type_0::SimdFloatCmp            0      0.00%     84.04% # Type of FU issued
system.switch_cpus0.iq.FU_type_0::SimdFloatCvt            0      0.00%     84.04% # Type of FU issued
system.switch_cpus0.iq.FU_type_0::SimdFloatDiv            0      0.00%     84.04% # Type of FU issued
system.switch_cpus0.iq.FU_type_0::SimdFloatMisc        16022      0.01%     84.05% # Type of FU issued
system.switch_cpus0.iq.FU_type_0::SimdFloatMult            0      0.00%     84.05% # Type of FU issued
system.switch_cpus0.iq.FU_type_0::SimdFloatMultAcc            0      0.00%     84.05% # Type of FU issued
system.switch_cpus0.iq.FU_type_0::SimdFloatSqrt            0      0.00%     84.05% # Type of FU issued
system.switch_cpus0.iq.FU_type_0::MemRead     14354115     10.32%     94.36% # Type of FU issued
system.switch_cpus0.iq.FU_type_0::MemWrite      7844587      5.64%    100.00% # Type of FU issued
system.switch_cpus0.iq.FU_type_0::IprAccess            0      0.00%    100.00% # Type of FU issued
system.switch_cpus0.iq.FU_type_0::InstPrefetch            0      0.00%    100.00% # Type of FU issued
system.switch_cpus0.iq.FU_type_0::total     139149897                       # Type of FU issued
system.switch_cpus0.iq.rate                  0.977900                       # Inst issue rate
system.switch_cpus0.iq.fu_busy_cnt            1306047                       # FU busy when requested
system.switch_cpus0.iq.fu_busy_rate          0.009386                       # FU busy rate (busy events/executed inst)
system.switch_cpus0.iq.int_inst_queue_reads    420145998                       # Number of integer instruction queue reads
system.switch_cpus0.iq.int_inst_queue_writes    174231381                       # Number of integer instruction queue writes
system.switch_cpus0.iq.int_inst_queue_wakeup_accesses    135037616                       # Number of integer instruction queue wakeup accesses
system.switch_cpus0.iq.fp_inst_queue_reads            0                       # Number of floating instruction queue reads
system.switch_cpus0.iq.fp_inst_queue_writes            0                       # Number of floating instruction queue writes
system.switch_cpus0.iq.fp_inst_queue_wakeup_accesses            0                       # Number of floating instruction queue wakeup accesses
system.switch_cpus0.iq.int_alu_accesses     140455944                       # Number of integer alu accesses
system.switch_cpus0.iq.fp_alu_accesses              0                       # Number of floating point alu accesses
system.switch_cpus0.iew.lsq.thread0.forwLoads       199782                       # Number of loads that had data forwarded from stores
system.switch_cpus0.iew.lsq.thread0.invAddrLoads            0                       # Number of loads ignored due to an invalid address
system.switch_cpus0.iew.lsq.thread0.squashedLoads      2967601                       # Number of loads squashed
system.switch_cpus0.iew.lsq.thread0.ignoredResponses         1270                       # Number of memory responses ignored because the instruction is squashed
system.switch_cpus0.iew.lsq.thread0.memOrderViolation          680                       # Number of memory ordering violations
system.switch_cpus0.iew.lsq.thread0.squashedStores       160187                       # Number of stores squashed
system.switch_cpus0.iew.lsq.thread0.invAddrSwpfs            0                       # Number of software prefetches ignored due to an invalid address
system.switch_cpus0.iew.lsq.thread0.blockedLoads            0                       # Number of blocked loads due to partial load-store forwarding
system.switch_cpus0.iew.lsq.thread0.rescheduledLoads          590                       # Number of loads that were rescheduled
system.switch_cpus0.iew.lsq.thread0.cacheBlocked            0                       # Number of times an access to memory failed due to the cache being blocked
system.switch_cpus0.iew.iewIdleCycles               0                       # Number of cycles IEW is idle
system.switch_cpus0.iew.iewSquashCycles       4281504                       # Number of cycles IEW is squashing
system.switch_cpus0.iew.iewBlockCycles        2815564                       # Number of cycles IEW is blocking
system.switch_cpus0.iew.iewUnblockCycles       248375                       # Number of cycles IEW is unblocking
system.switch_cpus0.iew.iewDispatchedInsts    149101235                       # Number of instructions dispatched to IQ
system.switch_cpus0.iew.iewDispSquashedInsts      1166231                       # Number of squashed instructions skipped by dispatch
system.switch_cpus0.iew.iewDispLoadInsts     15179730                       # Number of dispatched load instructions
system.switch_cpus0.iew.iewDispStoreInsts      7901857                       # Number of dispatched store instructions
system.switch_cpus0.iew.iewDispNonSpecInsts        17917                       # Number of dispatched non-speculative instructions
system.switch_cpus0.iew.iewIQFullEvents        198282                       # Number of times the IQ has become full, causing a stall
system.switch_cpus0.iew.iewLSQFullEvents        13059                       # Number of times the LSQ has become full, causing a stall
system.switch_cpus0.iew.memOrderViolationEvents          680                       # Number of memory order violations
system.switch_cpus0.iew.predictedTakenIncorrect      1147020                       # Number of branches that were predicted taken incorrectly
system.switch_cpus0.iew.predictedNotTakenIncorrect      1084594                       # Number of branches that were predicted not taken incorrectly
system.switch_cpus0.iew.branchMispredicts      2231614                       # Number of branch mispredicts detected at execute
system.switch_cpus0.iew.iewExecutedInsts    136775168                       # Number of executed instructions
system.switch_cpus0.iew.iewExecLoadInsts     14104227                       # Number of load instructions executed
system.switch_cpus0.iew.iewExecSquashedInsts      2374729                       # Number of squashed instructions skipped in execute
system.switch_cpus0.iew.exec_swp                    0                       # number of swp insts executed
system.switch_cpus0.iew.exec_nop                    0                       # number of nop insts executed
system.switch_cpus0.iew.exec_refs            21947286                       # number of memory reference insts executed
system.switch_cpus0.iew.exec_branches        19286848                       # Number of branches executed
system.switch_cpus0.iew.exec_stores           7843059                       # Number of stores executed
system.switch_cpus0.iew.exec_rate            0.961212                       # Inst execution rate
system.switch_cpus0.iew.wb_sent             135044079                       # cumulative count of insts sent to commit
system.switch_cpus0.iew.wb_count            135037616                       # cumulative count of insts written-back
system.switch_cpus0.iew.wb_producers         81490050                       # num instructions producing a value
system.switch_cpus0.iew.wb_consumers        221082112                       # num instructions consuming a value
system.switch_cpus0.iew.wb_penalized                0                       # number of instrctions required to write to 'other' IQ
system.switch_cpus0.iew.wb_rate              0.949001                       # insts written-back per cycle
system.switch_cpus0.iew.wb_fanout            0.368596                       # average fanout of values written-back
system.switch_cpus0.iew.wb_penalized_rate            0                       # fraction of instructions written-back that wrote to 'other' IQ
system.switch_cpus0.commit.commitCommittedInsts    100000000                       # The number of committed instructions
system.switch_cpus0.commit.commitCommittedOps    122421916                       # The number of committed instructions
system.switch_cpus0.commit.commitSquashedInsts     26686611                       # The number of squashed insts skipped by commit
system.switch_cpus0.commit.commitNonSpecStalls        32044                       # The number of times commit has been forced to stall to communicate backwards
system.switch_cpus0.commit.branchMispredicts      1956101                       # The number of times a branch was mispredicted
system.switch_cpus0.commit.committed_per_cycle::samples    136151403                       # Number of insts commited each cycle
system.switch_cpus0.commit.committed_per_cycle::mean     0.899160                       # Number of insts commited each cycle
system.switch_cpus0.commit.committed_per_cycle::stdev     1.714237                       # Number of insts commited each cycle
system.switch_cpus0.commit.committed_per_cycle::underflows            0      0.00%      0.00% # Number of insts commited each cycle
system.switch_cpus0.commit.committed_per_cycle::0     87057038     63.94%     63.94% # Number of insts commited each cycle
system.switch_cpus0.commit.committed_per_cycle::1     22500090     16.53%     80.47% # Number of insts commited each cycle
system.switch_cpus0.commit.committed_per_cycle::2     10806523      7.94%     88.40% # Number of insts commited each cycle
system.switch_cpus0.commit.committed_per_cycle::3      4818731      3.54%     91.94% # Number of insts commited each cycle
system.switch_cpus0.commit.committed_per_cycle::4      3767477      2.77%     94.71% # Number of insts commited each cycle
system.switch_cpus0.commit.committed_per_cycle::5      1536587      1.13%     95.84% # Number of insts commited each cycle
system.switch_cpus0.commit.committed_per_cycle::6      1562454      1.15%     96.99% # Number of insts commited each cycle
system.switch_cpus0.commit.committed_per_cycle::7      1095004      0.80%     97.79% # Number of insts commited each cycle
system.switch_cpus0.commit.committed_per_cycle::8      3007499      2.21%    100.00% # Number of insts commited each cycle
system.switch_cpus0.commit.committed_per_cycle::overflows            0      0.00%    100.00% # Number of insts commited each cycle
system.switch_cpus0.commit.committed_per_cycle::min_value            0                       # Number of insts commited each cycle
system.switch_cpus0.commit.committed_per_cycle::max_value            8                       # Number of insts commited each cycle
system.switch_cpus0.commit.committed_per_cycle::total    136151403                       # Number of insts commited each cycle
system.switch_cpus0.commit.committedInsts    100000000                       # Number of instructions committed
system.switch_cpus0.commit.committedOps     122421916                       # Number of ops (including micro ops) committed
system.switch_cpus0.commit.swp_count                0                       # Number of s/w prefetches committed
system.switch_cpus0.commit.refs              19953796                       # Number of memory references committed
system.switch_cpus0.commit.loads             12212126                       # Number of loads committed
system.switch_cpus0.commit.membars              16022                       # Number of memory barriers committed
system.switch_cpus0.commit.branches          17573934                       # Number of branches committed
system.switch_cpus0.commit.fp_insts                 0                       # Number of committed floating point instructions.
system.switch_cpus0.commit.int_insts        110146122                       # Number of committed integer instructions.
system.switch_cpus0.commit.function_calls      2413416                       # Number of function calls committed.
system.switch_cpus0.commit.bw_lim_events      3007499                       # number cycles where commit BW limit reached
system.switch_cpus0.commit.bw_limited               0                       # number of insts not committed due to BW limits
system.switch_cpus0.rob.rob_reads           282252431                       # The number of ROB reads
system.switch_cpus0.rob.rob_writes          302498867                       # The number of ROB writes
system.switch_cpus0.timesIdled                  54598                       # Number of times that the entire CPU went into an idle state and unscheduled itself
system.switch_cpus0.idleCycles                1861647                       # Total number of cycles that the CPU has spent unscheduled due to idling
system.switch_cpus0.committedInsts          100000000                       # Number of Instructions Simulated
system.switch_cpus0.committedOps            122421916                       # Number of Ops (including micro ops) Simulated
system.switch_cpus0.committedInsts_total    100000000                       # Number of Instructions Simulated
system.switch_cpus0.cpi                      1.422946                       # CPI: Cycles Per Instruction
system.switch_cpus0.cpi_total                1.422946                       # CPI: Total CPI of All Threads
system.switch_cpus0.ipc                      0.702768                       # IPC: Instructions Per Cycle
system.switch_cpus0.ipc_total                0.702768                       # IPC: Total IPC of All Threads
system.switch_cpus0.int_regfile_reads       618069787                       # number of integer regfile reads
system.switch_cpus0.int_regfile_writes      186330471                       # number of integer regfile writes
system.switch_cpus0.misc_regfile_reads      145757268                       # number of misc regfile reads
system.switch_cpus0.misc_regfile_writes         32044                       # number of misc regfile writes
system.switch_cpus1.dtb.inst_hits                   0                       # ITB inst hits
system.switch_cpus1.dtb.inst_misses                 0                       # ITB inst misses
system.switch_cpus1.dtb.read_hits                   0                       # DTB read hits
system.switch_cpus1.dtb.read_misses                 0                       # DTB read misses
system.switch_cpus1.dtb.write_hits                  0                       # DTB write hits
system.switch_cpus1.dtb.write_misses                0                       # DTB write misses
system.switch_cpus1.dtb.flush_tlb                   0                       # Number of times complete TLB was flushed
system.switch_cpus1.dtb.flush_tlb_mva               0                       # Number of times TLB was flushed by MVA
system.switch_cpus1.dtb.flush_tlb_mva_asid            0                       # Number of times TLB was flushed by MVA & ASID
system.switch_cpus1.dtb.flush_tlb_asid              0                       # Number of times TLB was flushed by ASID
system.switch_cpus1.dtb.flush_entries               0                       # Number of entries that have been flushed from TLB
system.switch_cpus1.dtb.align_faults                0                       # Number of TLB faults due to alignment restrictions
system.switch_cpus1.dtb.prefetch_faults             0                       # Number of TLB faults due to prefetch
system.switch_cpus1.dtb.domain_faults               0                       # Number of TLB faults due to domain restrictions
system.switch_cpus1.dtb.perms_faults                0                       # Number of TLB faults due to permissions restrictions
system.switch_cpus1.dtb.read_accesses               0                       # DTB read accesses
system.switch_cpus1.dtb.write_accesses              0                       # DTB write accesses
system.switch_cpus1.dtb.inst_accesses               0                       # ITB inst accesses
system.switch_cpus1.dtb.hits                        0                       # DTB hits
system.switch_cpus1.dtb.misses                      0                       # DTB misses
system.switch_cpus1.dtb.accesses                    0                       # DTB accesses
system.switch_cpus1.itb.inst_hits                   0                       # ITB inst hits
system.switch_cpus1.itb.inst_misses                 0                       # ITB inst misses
system.switch_cpus1.itb.read_hits                   0                       # DTB read hits
system.switch_cpus1.itb.read_misses                 0                       # DTB read misses
system.switch_cpus1.itb.write_hits                  0                       # DTB write hits
system.switch_cpus1.itb.write_misses                0                       # DTB write misses
system.switch_cpus1.itb.flush_tlb                   0                       # Number of times complete TLB was flushed
system.switch_cpus1.itb.flush_tlb_mva               0                       # Number of times TLB was flushed by MVA
system.switch_cpus1.itb.flush_tlb_mva_asid            0                       # Number of times TLB was flushed by MVA & ASID
system.switch_cpus1.itb.flush_tlb_asid              0                       # Number of times TLB was flushed by ASID
system.switch_cpus1.itb.flush_entries               0                       # Number of entries that have been flushed from TLB
system.switch_cpus1.itb.align_faults                0                       # Number of TLB faults due to alignment restrictions
system.switch_cpus1.itb.prefetch_faults             0                       # Number of TLB faults due to prefetch
system.switch_cpus1.itb.domain_faults               0                       # Number of TLB faults due to domain restrictions
system.switch_cpus1.itb.perms_faults                0                       # Number of TLB faults due to permissions restrictions
system.switch_cpus1.itb.read_accesses               0                       # DTB read accesses
system.switch_cpus1.itb.write_accesses              0                       # DTB write accesses
system.switch_cpus1.itb.inst_accesses               0                       # ITB inst accesses
system.switch_cpus1.itb.hits                        0                       # DTB hits
system.switch_cpus1.itb.misses                      0                       # DTB misses
system.switch_cpus1.itb.accesses                    0                       # DTB accesses
system.cpu1.workload.num_syscalls                   0                       # Number of system calls
system.switch_cpus1.numCycles               142294554                       # number of cpu cycles simulated
system.switch_cpus1.numWorkItemsStarted             0                       # number of work items this cpu started
system.switch_cpus1.numWorkItemsCompleted            0                       # number of work items this cpu completed
system.switch_cpus1.BPredUnit.lookups        21203499                       # Number of BP lookups
system.switch_cpus1.BPredUnit.condPredicted     18582335                       # Number of conditional branches predicted
system.switch_cpus1.BPredUnit.condIncorrect      1653775                       # Number of conditional branches incorrect
system.switch_cpus1.BPredUnit.BTBLookups     10517429                       # Number of BTB lookups
system.switch_cpus1.BPredUnit.BTBHits        10238544                       # Number of BTB hits
system.switch_cpus1.BPredUnit.BTBCorrect            0                       # Number of correct BTB predictions (this stat may not work properly.
system.switch_cpus1.BPredUnit.usedRAS         1474687                       # Number of times the RAS was used to get a target.
system.switch_cpus1.BPredUnit.RASInCorrect        51689                       # Number of incorrect RAS predictions.
system.switch_cpus1.fetch.icacheStallCycles    111840687                       # Number of cycles fetch is stalled on an Icache miss
system.switch_cpus1.fetch.Insts             117872330                       # Number of instructions fetch has processed
system.switch_cpus1.fetch.Branches           21203499                       # Number of branches that fetch encountered
system.switch_cpus1.fetch.predictedBranches     11713231                       # Number of branches that fetch has predicted taken
system.switch_cpus1.fetch.Cycles             23976006                       # Number of cycles fetch has run and was not squashing or blocked
system.switch_cpus1.fetch.SquashCycles        5398346                       # Number of cycles fetch has spent squashing
system.switch_cpus1.fetch.BlockedCycles       1623494                       # Number of cycles fetch has spent blocked
system.switch_cpus1.fetch.CacheLines         12748337                       # Number of cache lines fetched
system.switch_cpus1.fetch.IcacheSquashes      1043669                       # Number of outstanding Icache misses that were squashed
system.switch_cpus1.fetch.rateDist::samples    141175100                       # Number of instructions fetched each cycle (Total)
system.switch_cpus1.fetch.rateDist::mean     0.949375                       # Number of instructions fetched each cycle (Total)
system.switch_cpus1.fetch.rateDist::stdev     2.318414                       # Number of instructions fetched each cycle (Total)
system.switch_cpus1.fetch.rateDist::underflows            0      0.00%      0.00% # Number of instructions fetched each cycle (Total)
system.switch_cpus1.fetch.rateDist::0       117199094     83.02%     83.02% # Number of instructions fetched each cycle (Total)
system.switch_cpus1.fetch.rateDist::1         1204817      0.85%     83.87% # Number of instructions fetched each cycle (Total)
system.switch_cpus1.fetch.rateDist::2         2209163      1.56%     85.44% # Number of instructions fetched each cycle (Total)
system.switch_cpus1.fetch.rateDist::3         1850921      1.31%     86.75% # Number of instructions fetched each cycle (Total)
system.switch_cpus1.fetch.rateDist::4         3397006      2.41%     89.15% # Number of instructions fetched each cycle (Total)
system.switch_cpus1.fetch.rateDist::5         3673428      2.60%     91.75% # Number of instructions fetched each cycle (Total)
system.switch_cpus1.fetch.rateDist::6          800094      0.57%     92.32% # Number of instructions fetched each cycle (Total)
system.switch_cpus1.fetch.rateDist::7          628158      0.44%     92.77% # Number of instructions fetched each cycle (Total)
system.switch_cpus1.fetch.rateDist::8        10212419      7.23%    100.00% # Number of instructions fetched each cycle (Total)
system.switch_cpus1.fetch.rateDist::overflows            0      0.00%    100.00% # Number of instructions fetched each cycle (Total)
system.switch_cpus1.fetch.rateDist::min_value            0                       # Number of instructions fetched each cycle (Total)
system.switch_cpus1.fetch.rateDist::max_value            8                       # Number of instructions fetched each cycle (Total)
system.switch_cpus1.fetch.rateDist::total    141175100                       # Number of instructions fetched each cycle (Total)
system.switch_cpus1.fetch.branchRate         0.149011                       # Number of branch fetches per cycle
system.switch_cpus1.fetch.rate               0.828369                       # Number of inst fetches per cycle
system.switch_cpus1.decode.IdleCycles       111037957                       # Number of cycles decode is idle
system.switch_cpus1.decode.BlockedCycles      2608068                       # Number of cycles decode is blocked
system.switch_cpus1.decode.RunCycles         23775405                       # Number of cycles decode is running
system.switch_cpus1.decode.UnblockCycles        23683                       # Number of cycles decode is unblocking
system.switch_cpus1.decode.SquashCycles       3729986                       # Number of cycles decode is squashing
system.switch_cpus1.decode.BranchResolved      2275581                       # Number of times decode resolved a branch
system.switch_cpus1.decode.BranchMispred         4933                       # Number of times decode detected a branch misprediction
system.switch_cpus1.decode.DecodedInsts     132994036                       # Number of instructions handled by decode
system.switch_cpus1.decode.SquashedInsts         1307                       # Number of squashed instructions handled by decode
system.switch_cpus1.rename.SquashCycles       3729986                       # Number of cycles rename is squashing
system.switch_cpus1.rename.IdleCycles       111478358                       # Number of cycles rename is idle
system.switch_cpus1.rename.BlockCycles        1126216                       # Number of cycles rename is blocking
system.switch_cpus1.rename.serializeStallCycles       736072                       # count of cycles rename stalled for serializing inst
system.switch_cpus1.rename.RunCycles         23347161                       # Number of cycles rename is running
system.switch_cpus1.rename.UnblockCycles       757306                       # Number of cycles rename is unblocking
system.switch_cpus1.rename.RenamedInsts     132070483                       # Number of instructions processed by rename
system.switch_cpus1.rename.ROBFullEvents            1                       # Number of times rename has blocked due to ROB full
system.switch_cpus1.rename.IQFullEvents         84650                       # Number of times rename has blocked due to IQ full
system.switch_cpus1.rename.LSQFullEvents       438076                       # Number of times rename has blocked due to LSQ full
system.switch_cpus1.rename.RenamedOperands    175387761                       # Number of destination operands rename has renamed
system.switch_cpus1.rename.RenameLookups    599213140                       # Number of register rename lookups that rename has made
system.switch_cpus1.rename.int_rename_lookups    599213140                       # Number of integer rename lookups
system.switch_cpus1.rename.CommittedMaps    141573492                       # Number of HB maps that are committed
system.switch_cpus1.rename.UndoneMaps        33814265                       # Number of HB maps that are undone due to squashing
system.switch_cpus1.rename.serializingInsts        18837                       # count of serializing insts renamed
system.switch_cpus1.rename.tempSerializingInsts         9422                       # count of temporary serializing insts renamed
system.switch_cpus1.rename.skidInsts          2474127                       # count of insts added to the skid buffer
system.switch_cpus1.memDep0.insertedLoads     21997936                       # Number of loads inserted to the mem dependence unit.
system.switch_cpus1.memDep0.insertedStores      4265982                       # Number of stores inserted to the mem dependence unit.
system.switch_cpus1.memDep0.conflictingLoads        78128                       # Number of conflicting loads.
system.switch_cpus1.memDep0.conflictingStores       949263                       # Number of conflicting stores.
system.switch_cpus1.iq.iqInstsAdded         130530717                       # Number of instructions added to the IQ (excludes non-spec)
system.switch_cpus1.iq.iqNonSpecInstsAdded        18836                       # Number of non-speculative instructions added to the IQ
system.switch_cpus1.iq.iqInstsIssued        122644434                       # Number of instructions issued
system.switch_cpus1.iq.iqSquashedInstsIssued        98780                       # Number of squashed instructions issued
system.switch_cpus1.iq.iqSquashedInstsExamined     21564843                       # Number of squashed instructions iterated over during squash; mainly for profiling
system.switch_cpus1.iq.iqSquashedOperandsExamined     46406765                       # Number of squashed operands that are examined and possibly removed from graph
system.switch_cpus1.iq.iqSquashedNonSpecRemoved            8                       # Number of squashed non-spec instructions that were removed
system.switch_cpus1.iq.issued_per_cycle::samples    141175100                       # Number of insts issued each cycle
system.switch_cpus1.iq.issued_per_cycle::mean     0.868740                       # Number of insts issued each cycle
system.switch_cpus1.iq.issued_per_cycle::stdev     1.478965                       # Number of insts issued each cycle
system.switch_cpus1.iq.issued_per_cycle::underflows            0      0.00%      0.00% # Number of insts issued each cycle
system.switch_cpus1.iq.issued_per_cycle::0     90146113     63.85%     63.85% # Number of insts issued each cycle
system.switch_cpus1.iq.issued_per_cycle::1     20763845     14.71%     78.56% # Number of insts issued each cycle
system.switch_cpus1.iq.issued_per_cycle::2     10423756      7.38%     85.95% # Number of insts issued each cycle
system.switch_cpus1.iq.issued_per_cycle::3      6865193      4.86%     90.81% # Number of insts issued each cycle
system.switch_cpus1.iq.issued_per_cycle::4      7143564      5.06%     95.87% # Number of insts issued each cycle
system.switch_cpus1.iq.issued_per_cycle::5      3696764      2.62%     98.49% # Number of insts issued each cycle
system.switch_cpus1.iq.issued_per_cycle::6      1649469      1.17%     99.66% # Number of insts issued each cycle
system.switch_cpus1.iq.issued_per_cycle::7       408560      0.29%     99.94% # Number of insts issued each cycle
system.switch_cpus1.iq.issued_per_cycle::8        77836      0.06%    100.00% # Number of insts issued each cycle
system.switch_cpus1.iq.issued_per_cycle::overflows            0      0.00%    100.00% # Number of insts issued each cycle
system.switch_cpus1.iq.issued_per_cycle::min_value            0                       # Number of insts issued each cycle
system.switch_cpus1.iq.issued_per_cycle::max_value            8                       # Number of insts issued each cycle
system.switch_cpus1.iq.issued_per_cycle::total    141175100                       # Number of insts issued each cycle
system.switch_cpus1.iq.fu_full::No_OpClass            0      0.00%      0.00% # attempts to use FU when none available
system.switch_cpus1.iq.fu_full::IntAlu         304271     60.08%     60.08% # attempts to use FU when none available
system.switch_cpus1.iq.fu_full::IntMult             0      0.00%     60.08% # attempts to use FU when none available
system.switch_cpus1.iq.fu_full::IntDiv              0      0.00%     60.08% # attempts to use FU when none available
system.switch_cpus1.iq.fu_full::FloatAdd            0      0.00%     60.08% # attempts to use FU when none available
system.switch_cpus1.iq.fu_full::FloatCmp            0      0.00%     60.08% # attempts to use FU when none available
system.switch_cpus1.iq.fu_full::FloatCvt            0      0.00%     60.08% # attempts to use FU when none available
system.switch_cpus1.iq.fu_full::FloatMult            0      0.00%     60.08% # attempts to use FU when none available
system.switch_cpus1.iq.fu_full::FloatDiv            0      0.00%     60.08% # attempts to use FU when none available
system.switch_cpus1.iq.fu_full::FloatSqrt            0      0.00%     60.08% # attempts to use FU when none available
system.switch_cpus1.iq.fu_full::SimdAdd             0      0.00%     60.08% # attempts to use FU when none available
system.switch_cpus1.iq.fu_full::SimdAddAcc            0      0.00%     60.08% # attempts to use FU when none available
system.switch_cpus1.iq.fu_full::SimdAlu             0      0.00%     60.08% # attempts to use FU when none available
system.switch_cpus1.iq.fu_full::SimdCmp             0      0.00%     60.08% # attempts to use FU when none available
system.switch_cpus1.iq.fu_full::SimdCvt             0      0.00%     60.08% # attempts to use FU when none available
system.switch_cpus1.iq.fu_full::SimdMisc            0      0.00%     60.08% # attempts to use FU when none available
system.switch_cpus1.iq.fu_full::SimdMult            0      0.00%     60.08% # attempts to use FU when none available
system.switch_cpus1.iq.fu_full::SimdMultAcc            0      0.00%     60.08% # attempts to use FU when none available
system.switch_cpus1.iq.fu_full::SimdShift            0      0.00%     60.08% # attempts to use FU when none available
system.switch_cpus1.iq.fu_full::SimdShiftAcc            0      0.00%     60.08% # attempts to use FU when none available
system.switch_cpus1.iq.fu_full::SimdSqrt            0      0.00%     60.08% # attempts to use FU when none available
system.switch_cpus1.iq.fu_full::SimdFloatAdd            0      0.00%     60.08% # attempts to use FU when none available
system.switch_cpus1.iq.fu_full::SimdFloatAlu            0      0.00%     60.08% # attempts to use FU when none available
system.switch_cpus1.iq.fu_full::SimdFloatCmp            0      0.00%     60.08% # attempts to use FU when none available
system.switch_cpus1.iq.fu_full::SimdFloatCvt            0      0.00%     60.08% # attempts to use FU when none available
system.switch_cpus1.iq.fu_full::SimdFloatDiv            0      0.00%     60.08% # attempts to use FU when none available
system.switch_cpus1.iq.fu_full::SimdFloatMisc            0      0.00%     60.08% # attempts to use FU when none available
system.switch_cpus1.iq.fu_full::SimdFloatMult            0      0.00%     60.08% # attempts to use FU when none available
system.switch_cpus1.iq.fu_full::SimdFloatMultAcc            0      0.00%     60.08% # attempts to use FU when none available
system.switch_cpus1.iq.fu_full::SimdFloatSqrt            0      0.00%     60.08% # attempts to use FU when none available
system.switch_cpus1.iq.fu_full::MemRead        125515     24.78%     84.87% # attempts to use FU when none available
system.switch_cpus1.iq.fu_full::MemWrite        76641     15.13%    100.00% # attempts to use FU when none available
system.switch_cpus1.iq.fu_full::IprAccess            0      0.00%    100.00% # attempts to use FU when none available
system.switch_cpus1.iq.fu_full::InstPrefetch            0      0.00%    100.00% # attempts to use FU when none available
system.switch_cpus1.iq.FU_type_0::No_OpClass            0      0.00%      0.00% # Type of FU issued
system.switch_cpus1.iq.FU_type_0::IntAlu     96797917     78.93%     78.93% # Type of FU issued
system.switch_cpus1.iq.FU_type_0::IntMult      1026562      0.84%     79.76% # Type of FU issued
system.switch_cpus1.iq.FU_type_0::IntDiv            0      0.00%     79.76% # Type of FU issued
system.switch_cpus1.iq.FU_type_0::FloatAdd            0      0.00%     79.76% # Type of FU issued
system.switch_cpus1.iq.FU_type_0::FloatCmp            0      0.00%     79.76% # Type of FU issued
system.switch_cpus1.iq.FU_type_0::FloatCvt            0      0.00%     79.76% # Type of FU issued
system.switch_cpus1.iq.FU_type_0::FloatMult            0      0.00%     79.76% # Type of FU issued
system.switch_cpus1.iq.FU_type_0::FloatDiv            0      0.00%     79.76% # Type of FU issued
system.switch_cpus1.iq.FU_type_0::FloatSqrt            0      0.00%     79.76% # Type of FU issued
system.switch_cpus1.iq.FU_type_0::SimdAdd            0      0.00%     79.76% # Type of FU issued
system.switch_cpus1.iq.FU_type_0::SimdAddAcc            0      0.00%     79.76% # Type of FU issued
system.switch_cpus1.iq.FU_type_0::SimdAlu            0      0.00%     79.76% # Type of FU issued
system.switch_cpus1.iq.FU_type_0::SimdCmp            0      0.00%     79.76% # Type of FU issued
system.switch_cpus1.iq.FU_type_0::SimdCvt            0      0.00%     79.76% # Type of FU issued
system.switch_cpus1.iq.FU_type_0::SimdMisc            0      0.00%     79.76% # Type of FU issued
system.switch_cpus1.iq.FU_type_0::SimdMult            0      0.00%     79.76% # Type of FU issued
system.switch_cpus1.iq.FU_type_0::SimdMultAcc            0      0.00%     79.76% # Type of FU issued
system.switch_cpus1.iq.FU_type_0::SimdShift            0      0.00%     79.76% # Type of FU issued
system.switch_cpus1.iq.FU_type_0::SimdShiftAcc            0      0.00%     79.76% # Type of FU issued
system.switch_cpus1.iq.FU_type_0::SimdSqrt            0      0.00%     79.76% # Type of FU issued
system.switch_cpus1.iq.FU_type_0::SimdFloatAdd            0      0.00%     79.76% # Type of FU issued
system.switch_cpus1.iq.FU_type_0::SimdFloatAlu            0      0.00%     79.76% # Type of FU issued
system.switch_cpus1.iq.FU_type_0::SimdFloatCmp            0      0.00%     79.76% # Type of FU issued
system.switch_cpus1.iq.FU_type_0::SimdFloatCvt            0      0.00%     79.76% # Type of FU issued
system.switch_cpus1.iq.FU_type_0::SimdFloatDiv            0      0.00%     79.76% # Type of FU issued
system.switch_cpus1.iq.FU_type_0::SimdFloatMisc         9415      0.01%     79.77% # Type of FU issued
system.switch_cpus1.iq.FU_type_0::SimdFloatMult            0      0.00%     79.77% # Type of FU issued
system.switch_cpus1.iq.FU_type_0::SimdFloatMultAcc            0      0.00%     79.77% # Type of FU issued
system.switch_cpus1.iq.FU_type_0::SimdFloatSqrt            0      0.00%     79.77% # Type of FU issued
system.switch_cpus1.iq.FU_type_0::MemRead     20574463     16.78%     96.55% # Type of FU issued
system.switch_cpus1.iq.FU_type_0::MemWrite      4236077      3.45%    100.00% # Type of FU issued
system.switch_cpus1.iq.FU_type_0::IprAccess            0      0.00%    100.00% # Type of FU issued
system.switch_cpus1.iq.FU_type_0::InstPrefetch            0      0.00%    100.00% # Type of FU issued
system.switch_cpus1.iq.FU_type_0::total     122644434                       # Type of FU issued
system.switch_cpus1.iq.rate                  0.861905                       # Inst issue rate
system.switch_cpus1.iq.fu_busy_cnt             506427                       # FU busy when requested
system.switch_cpus1.iq.fu_busy_rate          0.004129                       # FU busy rate (busy events/executed inst)
system.switch_cpus1.iq.int_inst_queue_reads    387069175                       # Number of integer instruction queue reads
system.switch_cpus1.iq.int_inst_queue_writes    152114706                       # Number of integer instruction queue writes
system.switch_cpus1.iq.int_inst_queue_wakeup_accesses    119868867                       # Number of integer instruction queue wakeup accesses
system.switch_cpus1.iq.fp_inst_queue_reads            0                       # Number of floating instruction queue reads
system.switch_cpus1.iq.fp_inst_queue_writes            0                       # Number of floating instruction queue writes
system.switch_cpus1.iq.fp_inst_queue_wakeup_accesses            0                       # Number of floating instruction queue wakeup accesses
system.switch_cpus1.iq.int_alu_accesses     123150861                       # Number of integer alu accesses
system.switch_cpus1.iq.fp_alu_accesses              0                       # Number of floating point alu accesses
system.switch_cpus1.iew.lsq.thread0.forwLoads       230192                       # Number of loads that had data forwarded from stores
system.switch_cpus1.iew.lsq.thread0.invAddrLoads            0                       # Number of loads ignored due to an invalid address
system.switch_cpus1.iew.lsq.thread0.squashedLoads      3955839                       # Number of loads squashed
system.switch_cpus1.iew.lsq.thread0.ignoredResponses           82                       # Number of memory responses ignored because the instruction is squashed
system.switch_cpus1.iew.lsq.thread0.memOrderViolation          310                       # Number of memory ordering violations
system.switch_cpus1.iew.lsq.thread0.squashedStores       131135                       # Number of stores squashed
system.switch_cpus1.iew.lsq.thread0.invAddrSwpfs            0                       # Number of software prefetches ignored due to an invalid address
system.switch_cpus1.iew.lsq.thread0.blockedLoads            0                       # Number of blocked loads due to partial load-store forwarding
system.switch_cpus1.iew.lsq.thread0.rescheduledLoads            0                       # Number of loads that were rescheduled
system.switch_cpus1.iew.lsq.thread0.cacheBlocked            0                       # Number of times an access to memory failed due to the cache being blocked
system.switch_cpus1.iew.iewIdleCycles               0                       # Number of cycles IEW is idle
system.switch_cpus1.iew.iewSquashCycles       3729986                       # Number of cycles IEW is squashing
system.switch_cpus1.iew.iewBlockCycles         723490                       # Number of cycles IEW is blocking
system.switch_cpus1.iew.iewUnblockCycles        47751                       # Number of cycles IEW is unblocking
system.switch_cpus1.iew.iewDispatchedInsts    130549553                       # Number of instructions dispatched to IQ
system.switch_cpus1.iew.iewDispSquashedInsts        45413                       # Number of squashed instructions skipped by dispatch
system.switch_cpus1.iew.iewDispLoadInsts     21997936                       # Number of dispatched load instructions
system.switch_cpus1.iew.iewDispStoreInsts      4265982                       # Number of dispatched store instructions
system.switch_cpus1.iew.iewDispNonSpecInsts         9422                       # Number of dispatched non-speculative instructions
system.switch_cpus1.iew.iewIQFullEvents         32214                       # Number of times the IQ has become full, causing a stall
system.switch_cpus1.iew.iewLSQFullEvents          159                       # Number of times the LSQ has become full, causing a stall
system.switch_cpus1.iew.memOrderViolationEvents          310                       # Number of memory order violations
system.switch_cpus1.iew.predictedTakenIncorrect       799450                       # Number of branches that were predicted taken incorrectly
system.switch_cpus1.iew.predictedNotTakenIncorrect       983071                       # Number of branches that were predicted not taken incorrectly
system.switch_cpus1.iew.branchMispredicts      1782521                       # Number of branch mispredicts detected at execute
system.switch_cpus1.iew.iewExecutedInsts    121327731                       # Number of executed instructions
system.switch_cpus1.iew.iewExecLoadInsts     20257672                       # Number of load instructions executed
system.switch_cpus1.iew.iewExecSquashedInsts      1316703                       # Number of squashed instructions skipped in execute
system.switch_cpus1.iew.exec_swp                    0                       # number of swp insts executed
system.switch_cpus1.iew.exec_nop                    0                       # number of nop insts executed
system.switch_cpus1.iew.exec_refs            24493571                       # number of memory reference insts executed
system.switch_cpus1.iew.exec_branches        18690170                       # Number of branches executed
system.switch_cpus1.iew.exec_stores           4235899                       # Number of stores executed
system.switch_cpus1.iew.exec_rate            0.852652                       # Inst execution rate
system.switch_cpus1.iew.wb_sent             119977016                       # cumulative count of insts sent to commit
system.switch_cpus1.iew.wb_count            119868867                       # cumulative count of insts written-back
system.switch_cpus1.iew.wb_producers         69243564                       # num instructions producing a value
system.switch_cpus1.iew.wb_consumers        164337801                       # num instructions consuming a value
system.switch_cpus1.iew.wb_penalized                0                       # number of instrctions required to write to 'other' IQ
system.switch_cpus1.iew.wb_rate              0.842400                       # insts written-back per cycle
system.switch_cpus1.iew.wb_fanout            0.421349                       # average fanout of values written-back
system.switch_cpus1.iew.wb_penalized_rate            0                       # fraction of instructions written-back that wrote to 'other' IQ
system.switch_cpus1.commit.commitCommittedInsts     95143076                       # The number of committed instructions
system.switch_cpus1.commit.commitCommittedOps    108058585                       # The number of committed instructions
system.switch_cpus1.commit.commitSquashedInsts     22491841                       # The number of squashed insts skipped by commit
system.switch_cpus1.commit.commitNonSpecStalls        18828                       # The number of times commit has been forced to stall to communicate backwards
system.switch_cpus1.commit.branchMispredicts      1658272                       # The number of times a branch was mispredicted
system.switch_cpus1.commit.committed_per_cycle::samples    137445114                       # Number of insts commited each cycle
system.switch_cpus1.commit.committed_per_cycle::mean     0.786194                       # Number of insts commited each cycle
[...]
system.cpu3.icache.ReadReq_miss_latency::total      3064689                       # number of ReadReq miss cycles
system.cpu3.icache.demand_miss_latency::switch_cpus3.inst      3064689                       # number of demand (read+write) miss cycles
system.cpu3.icache.demand_miss_latency::total      3064689                       # number of demand (read+write) miss cycles
system.cpu3.icache.overall_miss_latency::switch_cpus3.inst      3064689                       # number of overall miss cycles
system.cpu3.icache.overall_miss_latency::total      3064689                       # number of overall miss cycles
system.cpu3.icache.ReadReq_accesses::switch_cpus3.inst     12470279                       # number of ReadReq accesses(hits+misses)
system.cpu3.icache.ReadReq_accesses::total     12470279                       # number of ReadReq accesses(hits+misses)
system.cpu3.icache.demand_accesses::switch_cpus3.inst     12470279                       # number of demand (read+write) accesses
system.cpu3.icache.demand_accesses::total     12470279                       # number of demand (read+write) accesses
system.cpu3.icache.overall_accesses::switch_cpus3.inst     12470279                       # number of overall (read+write) accesses
system.cpu3.icache.overall_accesses::total     12470279                       # number of overall (read+write) accesses
system.cpu3.icache.ReadReq_miss_rate::switch_cpus3.inst     0.000001                       # miss rate for ReadReq accesses
system.cpu3.icache.ReadReq_miss_rate::total     0.000001                       # miss rate for ReadReq accesses
system.cpu3.icache.demand_miss_rate::switch_cpus3.inst     0.000001                       # miss rate for demand accesses
system.cpu3.icache.demand_miss_rate::total     0.000001                       # miss rate for demand accesses
system.cpu3.icache.overall_miss_rate::switch_cpus3.inst     0.000001                       # miss rate for overall accesses
system.cpu3.icache.overall_miss_rate::total     0.000001                       # miss rate for overall accesses
system.cpu3.icache.ReadReq_avg_miss_latency::switch_cpus3.inst 180275.823529                       # average ReadReq miss latency
system.cpu3.icache.ReadReq_avg_miss_latency::total 180275.823529                       # average ReadReq miss latency
system.cpu3.icache.demand_avg_miss_latency::switch_cpus3.inst 180275.823529                       # average overall miss latency
system.cpu3.icache.demand_avg_miss_latency::total 180275.823529                       # average overall miss latency
system.cpu3.icache.overall_avg_miss_latency::switch_cpus3.inst 180275.823529                       # average overall miss latency
system.cpu3.icache.overall_avg_miss_latency::total 180275.823529                       # average overall miss latency
system.cpu3.icache.blocked_cycles::no_mshrs            0                       # number of cycles access was blocked
system.cpu3.icache.blocked_cycles::no_targets            0                       # number of cycles access was blocked
system.cpu3.icache.blocked::no_mshrs                0                       # number of cycles access was blocked
system.cpu3.icache.blocked::no_targets              0                       # number of cycles access was blocked
system.cpu3.icache.avg_blocked_cycles::no_mshrs          nan                       # average number of cycles each access was blocked
system.cpu3.icache.avg_blocked_cycles::no_targets          nan                       # average number of cycles each access was blocked
system.cpu3.icache.fast_writes                      0                       # number of fast writes performed
system.cpu3.icache.cache_copies                     0                       # number of cache copies performed
system.cpu3.icache.ReadReq_mshr_hits::switch_cpus3.inst            1                       # number of ReadReq MSHR hits
system.cpu3.icache.ReadReq_mshr_hits::total            1                       # number of ReadReq MSHR hits
system.cpu3.icache.demand_mshr_hits::switch_cpus3.inst            1                       # number of demand (read+write) MSHR hits
system.cpu3.icache.demand_mshr_hits::total            1                       # number of demand (read+write) MSHR hits
system.cpu3.icache.overall_mshr_hits::switch_cpus3.inst            1                       # number of overall MSHR hits
system.cpu3.icache.overall_mshr_hits::total            1                       # number of overall MSHR hits
system.cpu3.icache.ReadReq_mshr_misses::switch_cpus3.inst           16                       # number of ReadReq MSHR misses
system.cpu3.icache.ReadReq_mshr_misses::total           16                       # number of ReadReq MSHR misses
system.cpu3.icache.demand_mshr_misses::switch_cpus3.inst           16                       # number of demand (read+write) MSHR misses
system.cpu3.icache.demand_mshr_misses::total           16                       # number of demand (read+write) MSHR misses
system.cpu3.icache.overall_mshr_misses::switch_cpus3.inst           16                       # number of overall MSHR misses
system.cpu3.icache.overall_mshr_misses::total           16                       # number of overall MSHR misses
system.cpu3.icache.ReadReq_mshr_miss_latency::switch_cpus3.inst      2814225                       # number of ReadReq MSHR miss cycles
system.cpu3.icache.ReadReq_mshr_miss_latency::total      2814225                       # number of ReadReq MSHR miss cycles
system.cpu3.icache.demand_mshr_miss_latency::switch_cpus3.inst      2814225                       # number of demand (read+write) MSHR miss cycles
system.cpu3.icache.demand_mshr_miss_latency::total      2814225                       # number of demand (read+write) MSHR miss cycles
system.cpu3.icache.overall_mshr_miss_latency::switch_cpus3.inst      2814225                       # number of overall MSHR miss cycles
system.cpu3.icache.overall_mshr_miss_latency::total      2814225                       # number of overall MSHR miss cycles
system.cpu3.icache.ReadReq_mshr_miss_rate::switch_cpus3.inst     0.000001                       # mshr miss rate for ReadReq accesses
system.cpu3.icache.ReadReq_mshr_miss_rate::total     0.000001                       # mshr miss rate for ReadReq accesses
system.cpu3.icache.demand_mshr_miss_rate::switch_cpus3.inst     0.000001                       # mshr miss rate for demand accesses
system.cpu3.icache.demand_mshr_miss_rate::total     0.000001                       # mshr miss rate for demand accesses
system.cpu3.icache.overall_mshr_miss_rate::switch_cpus3.inst     0.000001                       # mshr miss rate for overall accesses
system.cpu3.icache.overall_mshr_miss_rate::total     0.000001                       # mshr miss rate for overall accesses
system.cpu3.icache.ReadReq_avg_mshr_miss_latency::switch_cpus3.inst 175889.062500                       # average ReadReq mshr miss latency
system.cpu3.icache.ReadReq_avg_mshr_miss_latency::total 175889.062500                       # average ReadReq mshr miss latency
system.cpu3.icache.demand_avg_mshr_miss_latency::switch_cpus3.inst 175889.062500                       # average overall mshr miss latency
system.cpu3.icache.demand_avg_mshr_miss_latency::total 175889.062500                       # average overall mshr miss latency
system.cpu3.icache.overall_avg_mshr_miss_latency::switch_cpus3.inst 175889.062500                       # average overall mshr miss latency
system.cpu3.icache.overall_avg_mshr_miss_latency::total 175889.062500                       # average overall mshr miss latency
system.cpu3.icache.no_allocate_misses               0                       # Number of misses that were no-allocate
system.cpu3.dcache.replacements                 33397                       # number of replacements
system.cpu3.dcache.tagsinuse                      256                       # Cycle average of tags in use
system.cpu3.dcache.total_refs               163535220                       # Total number of references to valid blocks.
system.cpu3.dcache.sampled_refs                 33653                       # Sample count of references to valid blocks.
system.cpu3.dcache.avg_refs               4859.454432                       # Average number of references to valid blocks.
system.cpu3.dcache.warmup_cycle                     0                       # Cycle when the warmup percentage was hit.
system.cpu3.dcache.occ_blocks::switch_cpus3.data   231.010459                       # Average occupied blocks per requestor
system.cpu3.dcache.occ_blocks::cpu3.data    24.989541                       # Average occupied blocks per requestor
system.cpu3.dcache.occ_percent::switch_cpus3.data     0.902385                       # Average percentage of cache occupancy
system.cpu3.dcache.occ_percent::cpu3.data     0.097615                       # Average percentage of cache occupancy
system.cpu3.dcache.occ_percent::total               1                       # Average percentage of cache occupancy
system.cpu3.dcache.ReadReq_hits::switch_cpus3.data      9186141                       # number of ReadReq hits
system.cpu3.dcache.ReadReq_hits::total        9186141                       # number of ReadReq hits
system.cpu3.dcache.WriteReq_hits::switch_cpus3.data      7173687                       # number of WriteReq hits
system.cpu3.dcache.WriteReq_hits::total       7173687                       # number of WriteReq hits
system.cpu3.dcache.LoadLockedReq_hits::switch_cpus3.data        17360                       # number of LoadLockedReq hits
system.cpu3.dcache.LoadLockedReq_hits::total        17360                       # number of LoadLockedReq hits
system.cpu3.dcache.StoreCondReq_hits::switch_cpus3.data        17330                       # number of StoreCondReq hits
system.cpu3.dcache.StoreCondReq_hits::total        17330                       # number of StoreCondReq hits
system.cpu3.dcache.demand_hits::switch_cpus3.data     16359828                       # number of demand (read+write) hits
system.cpu3.dcache.demand_hits::total        16359828                       # number of demand (read+write) hits
system.cpu3.dcache.overall_hits::switch_cpus3.data     16359828                       # number of overall hits
system.cpu3.dcache.overall_hits::total       16359828                       # number of overall hits
system.cpu3.dcache.ReadReq_misses::switch_cpus3.data        85237                       # number of ReadReq misses
system.cpu3.dcache.ReadReq_misses::total        85237                       # number of ReadReq misses
system.cpu3.dcache.demand_misses::switch_cpus3.data        85237                       # number of demand (read+write) misses
system.cpu3.dcache.demand_misses::total         85237                       # number of demand (read+write) misses
system.cpu3.dcache.overall_misses::switch_cpus3.data        85237                       # number of overall misses
system.cpu3.dcache.overall_misses::total        85237                       # number of overall misses
system.cpu3.dcache.ReadReq_miss_latency::switch_cpus3.data   7589334252                       # number of ReadReq miss cycles
system.cpu3.dcache.ReadReq_miss_latency::total   7589334252                       # number of ReadReq miss cycles
system.cpu3.dcache.demand_miss_latency::switch_cpus3.data   7589334252                       # number of demand (read+write) miss cycles
system.cpu3.dcache.demand_miss_latency::total   7589334252                       # number of demand (read+write) miss cycles
system.cpu3.dcache.overall_miss_latency::switch_cpus3.data   7589334252                       # number of overall miss cycles
system.cpu3.dcache.overall_miss_latency::total   7589334252                       # number of overall miss cycles
system.cpu3.dcache.ReadReq_accesses::switch_cpus3.data      9271378                       # number of ReadReq accesses(hits+misses)
system.cpu3.dcache.ReadReq_accesses::total      9271378                       # number of ReadReq accesses(hits+misses)
system.cpu3.dcache.WriteReq_accesses::switch_cpus3.data      7173687                       # number of WriteReq accesses(hits+misses)
system.cpu3.dcache.WriteReq_accesses::total      7173687                       # number of WriteReq accesses(hits+misses)
system.cpu3.dcache.LoadLockedReq_accesses::switch_cpus3.data        17360                       # number of LoadLockedReq accesses(hits+misses)
system.cpu3.dcache.LoadLockedReq_accesses::total        17360                       # number of LoadLockedReq accesses(hits+misses)
system.cpu3.dcache.StoreCondReq_accesses::switch_cpus3.data        17330                       # number of StoreCondReq accesses(hits+misses)
system.cpu3.dcache.StoreCondReq_accesses::total        17330                       # number of StoreCondReq accesses(hits+misses)
system.cpu3.dcache.demand_accesses::switch_cpus3.data     16445065                       # number of demand (read+write) accesses
system.cpu3.dcache.demand_accesses::total     16445065                       # number of demand (read+write) accesses
system.cpu3.dcache.overall_accesses::switch_cpus3.data     16445065                       # number of overall (read+write) accesses
system.cpu3.dcache.overall_accesses::total     16445065                       # number of overall (read+write) accesses
system.cpu3.dcache.ReadReq_miss_rate::switch_cpus3.data     0.009194                       # miss rate for ReadReq accesses
system.cpu3.dcache.ReadReq_miss_rate::total     0.009194                       # miss rate for ReadReq accesses
system.cpu3.dcache.demand_miss_rate::switch_cpus3.data     0.005183                       # miss rate for demand accesses
system.cpu3.dcache.demand_miss_rate::total     0.005183                       # miss rate for demand accesses
system.cpu3.dcache.overall_miss_rate::switch_cpus3.data     0.005183                       # miss rate for overall accesses
system.cpu3.dcache.overall_miss_rate::total     0.005183                       # miss rate for overall accesses
system.cpu3.dcache.ReadReq_avg_miss_latency::switch_cpus3.data 89038.026350                       # average ReadReq miss latency
system.cpu3.dcache.ReadReq_avg_miss_latency::total 89038.026350                       # average ReadReq miss latency
system.cpu3.dcache.demand_avg_miss_latency::switch_cpus3.data 89038.026350                       # average overall miss latency
system.cpu3.dcache.demand_avg_miss_latency::total 89038.026350                       # average overall miss latency
system.cpu3.dcache.overall_avg_miss_latency::switch_cpus3.data 89038.026350                       # average overall miss latency
system.cpu3.dcache.overall_avg_miss_latency::total 89038.026350                       # average overall miss latency
system.cpu3.dcache.blocked_cycles::no_mshrs            0                       # number of cycles access was blocked
system.cpu3.dcache.blocked_cycles::no_targets            0                       # number of cycles access was blocked
system.cpu3.dcache.blocked::no_mshrs                0                       # number of cycles access was blocked
system.cpu3.dcache.blocked::no_targets              0                       # number of cycles access was blocked
system.cpu3.dcache.avg_blocked_cycles::no_mshrs          nan                       # average number of cycles each access was blocked
system.cpu3.dcache.avg_blocked_cycles::no_targets          nan                       # average number of cycles each access was blocked
system.cpu3.dcache.fast_writes                      0                       # number of fast writes performed
system.cpu3.dcache.cache_copies                     0                       # number of cache copies performed
system.cpu3.dcache.writebacks::writebacks         8983                       # number of writebacks
system.cpu3.dcache.writebacks::total             8983                       # number of writebacks
system.cpu3.dcache.ReadReq_mshr_hits::switch_cpus3.data        51840                       # number of ReadReq MSHR hits
system.cpu3.dcache.ReadReq_mshr_hits::total        51840                       # number of ReadReq MSHR hits
system.cpu3.dcache.demand_mshr_hits::switch_cpus3.data        51840                       # number of demand (read+write) MSHR hits
system.cpu3.dcache.demand_mshr_hits::total        51840                       # number of demand (read+write) MSHR hits
system.cpu3.dcache.overall_mshr_hits::switch_cpus3.data        51840                       # number of overall MSHR hits
system.cpu3.dcache.overall_mshr_hits::total        51840                       # number of overall MSHR hits
system.cpu3.dcache.ReadReq_mshr_misses::switch_cpus3.data        33397                       # number of ReadReq MSHR misses
system.cpu3.dcache.ReadReq_mshr_misses::total        33397                       # number of ReadReq MSHR misses
system.cpu3.dcache.demand_mshr_misses::switch_cpus3.data        33397                       # number of demand (read+write) MSHR misses
system.cpu3.dcache.demand_mshr_misses::total        33397                       # number of demand (read+write) MSHR misses
system.cpu3.dcache.overall_mshr_misses::switch_cpus3.data        33397                       # number of overall MSHR misses
system.cpu3.dcache.overall_mshr_misses::total        33397                       # number of overall MSHR misses
system.cpu3.dcache.ReadReq_mshr_miss_latency::switch_cpus3.data   2630439180                       # number of ReadReq MSHR miss cycles
system.cpu3.dcache.ReadReq_mshr_miss_latency::total   2630439180                       # number of ReadReq MSHR miss cycles
system.cpu3.dcache.demand_mshr_miss_latency::switch_cpus3.data   2630439180                       # number of demand (read+write) MSHR miss cycles
system.cpu3.dcache.demand_mshr_miss_latency::total   2630439180                       # number of demand (read+write) MSHR miss cycles
system.cpu3.dcache.overall_mshr_miss_latency::switch_cpus3.data   2630439180                       # number of overall MSHR miss cycles
system.cpu3.dcache.overall_mshr_miss_latency::total   2630439180                       # number of overall MSHR miss cycles
system.cpu3.dcache.ReadReq_mshr_miss_rate::switch_cpus3.data     0.003602                       # mshr miss rate for ReadReq accesses
system.cpu3.dcache.ReadReq_mshr_miss_rate::total     0.003602                       # mshr miss rate for ReadReq accesses
system.cpu3.dcache.demand_mshr_miss_rate::switch_cpus3.data     0.002031                       # mshr miss rate for demand accesses
system.cpu3.dcache.demand_mshr_miss_rate::total     0.002031                       # mshr miss rate for demand accesses
system.cpu3.dcache.overall_mshr_miss_rate::switch_cpus3.data     0.002031                       # mshr miss rate for overall accesses
system.cpu3.dcache.overall_mshr_miss_rate::total     0.002031                       # mshr miss rate for overall accesses
system.cpu3.dcache.ReadReq_avg_mshr_miss_latency::switch_cpus3.data 78762.738569                       # average ReadReq mshr miss latency
system.cpu3.dcache.ReadReq_avg_mshr_miss_latency::total 78762.738569                       # average ReadReq mshr miss latency
system.cpu3.dcache.demand_avg_mshr_miss_latency::switch_cpus3.data 78762.738569                       # average overall mshr miss latency
system.cpu3.dcache.demand_avg_mshr_miss_latency::total 78762.738569                       # average overall mshr miss latency
system.cpu3.dcache.overall_avg_mshr_miss_latency::switch_cpus3.data 78762.738569                       # average overall mshr miss latency
system.cpu3.dcache.overall_avg_mshr_miss_latency::total 78762.738569                       # average overall mshr miss latency
system.cpu3.dcache.no_allocate_misses               0                       # Number of misses that were no-allocate

---------- End Simulation Statistics   ----------
