
---------- Begin Simulation Statistics ----------
sim_seconds                                  0.003328                       # Number of seconds simulated
sim_ticks                                  3328140384                       # Number of ticks simulated
final_tick                               574831063503                       # Number of ticks from beginning of simulation (restored from checkpoints and never reset)
sim_freq                                 1000000000000                       # Frequency of simulated ticks
host_inst_rate                                 395466                       # Simulator instruction rate (inst/s)
host_op_rate                                   508630                       # Simulator op (including micro ops) rate (op/s)
host_tick_rate                                 306249                       # Simulator tick rate (ticks/s)
host_mem_usage                               16918980                       # Number of bytes of host memory used
host_seconds                                 10867.44                       # Real time elapsed on the host
sim_insts                                  4297704448                       # Number of instructions simulated
sim_ops                                    5527500420                       # Number of ops (including micro ops) simulated
system.physmem.bytes_read::switch_cpus0.inst         2048                       # Number of bytes read from this memory
system.physmem.bytes_read::switch_cpus0.data       258944                       # Number of bytes read from this memory
system.physmem.bytes_read::switch_cpus1.inst         1664                       # Number of bytes read from this memory
system.physmem.bytes_read::switch_cpus1.data       358784                       # Number of bytes read from this memory
system.physmem.bytes_read::switch_cpus2.inst         2048                       # Number of bytes read from this memory
system.physmem.bytes_read::switch_cpus2.data       124288                       # Number of bytes read from this memory
system.physmem.bytes_read::switch_cpus3.inst         1664                       # Number of bytes read from this memory
system.physmem.bytes_read::switch_cpus3.data       209152                       # Number of bytes read from this memory
system.physmem.bytes_read::total               958592                       # Number of bytes read from this memory
system.physmem.bytes_inst_read::switch_cpus0.inst         2048                       # Number of instructions bytes read from this memory
system.physmem.bytes_inst_read::switch_cpus1.inst         1664                       # Number of instructions bytes read from this memory
system.physmem.bytes_inst_read::switch_cpus2.inst         2048                       # Number of instructions bytes read from this memory
system.physmem.bytes_inst_read::switch_cpus3.inst         1664                       # Number of instructions bytes read from this memory
system.physmem.bytes_inst_read::total            7424                       # Number of instructions bytes read from this memory
system.physmem.bytes_written::writebacks       284416                       # Number of bytes written to this memory
system.physmem.bytes_written::total            284416                       # Number of bytes written to this memory
system.physmem.num_reads::switch_cpus0.inst           16                       # Number of read requests responded to by this memory
system.physmem.num_reads::switch_cpus0.data         2023                       # Number of read requests responded to by this memory
system.physmem.num_reads::switch_cpus1.inst           13                       # Number of read requests responded to by this memory
system.physmem.num_reads::switch_cpus1.data         2803                       # Number of read requests responded to by this memory
system.physmem.num_reads::switch_cpus2.inst           16                       # Number of read requests responded to by this memory
system.physmem.num_reads::switch_cpus2.data          971                       # Number of read requests responded to by this memory
system.physmem.num_reads::switch_cpus3.inst           13                       # Number of read requests responded to by this memory
system.physmem.num_reads::switch_cpus3.data         1634                       # Number of read requests responded to by this memory
system.physmem.num_reads::total                  7489                       # Number of read requests responded to by this memory
system.physmem.num_writes::writebacks            2222                       # Number of write requests responded to by this memory
system.physmem.num_writes::functional               0                       # Number of write requests responded to by this memory
system.physmem.num_writes::interrupt                0                       # Number of write requests responded to by this memory
system.physmem.num_writes::switch_cpus0.dtb.walker            0                       # Number of write requests responded to by this memory
system.physmem.num_writes::switch_cpus0.itb.walker            0                       # Number of write requests responded to by this memory
system.physmem.num_writes::switch_cpus0.inst            0                       # Number of write requests responded to by this memory
system.physmem.num_writes::switch_cpus0.data            0                       # Number of write requests responded to by this memory
system.physmem.num_writes::switch_cpus1.dtb.walker            0                       # Number of write requests responded to by this memory
system.physmem.num_writes::switch_cpus1.itb.walker            0                       # Number of write requests responded to by this memory
system.physmem.num_writes::switch_cpus1.inst            0                       # Number of write requests responded to by this memory
system.physmem.num_writes::switch_cpus1.data            0                       # Number of write requests responded to by this memory
system.physmem.num_writes::switch_cpus2.dtb.walker            0                       # Number of write requests responded to by this memory
system.physmem.num_writes::switch_cpus2.itb.walker            0                       # Number of write requests responded to by this memory
system.physmem.num_writes::switch_cpus2.inst            0                       # Number of write requests responded to by this memory
system.physmem.num_writes::switch_cpus2.data            0                       # Number of write requests responded to by this memory
system.physmem.num_writes::switch_cpus3.dtb.walker            0                       # Number of write requests responded to by this memory
system.physmem.num_writes::switch_cpus3.itb.walker            0                       # Number of write requests responded to by this memory
system.physmem.num_writes::switch_cpus3.inst            0                       # Number of write requests responded to by this memory
system.physmem.num_writes::switch_cpus3.data            0                       # Number of write requests responded to by this memory
system.physmem.num_writes::cpu0.dtb.walker            0                       # Number of write requests responded to by this memory
system.physmem.num_writes::cpu0.itb.walker            0                       # Number of write requests responded to by this memory
system.physmem.num_writes::cpu0.inst                0                       # Number of write requests responded to by this memory
system.physmem.num_writes::cpu0.data                0                       # Number of write requests responded to by this memory
system.physmem.num_writes::cpu1.dtb.walker            0                       # Number of write requests responded to by this memory
system.physmem.num_writes::cpu1.itb.walker            0                       # Number of write requests responded to by this memory
system.physmem.num_writes::cpu1.inst                0                       # Number of write requests responded to by this memory
system.physmem.num_writes::cpu1.data                0                       # Number of write requests responded to by this memory
system.physmem.num_writes::cpu2.dtb.walker            0                       # Number of write requests responded to by this memory
system.physmem.num_writes::cpu2.itb.walker            0                       # Number of write requests responded to by this memory
system.physmem.num_writes::cpu2.inst                0                       # Number of write requests responded to by this memory
system.physmem.num_writes::cpu2.data                0                       # Number of write requests responded to by this memory
system.physmem.num_writes::cpu3.dtb.walker            0                       # Number of write requests responded to by this memory
system.physmem.num_writes::cpu3.itb.walker            0                       # Number of write requests responded to by this memory
system.physmem.num_writes::cpu3.inst                0                       # Number of write requests responded to by this memory
system.physmem.num_writes::cpu3.data                0                       # Number of write requests responded to by this memory
system.physmem.num_writes::total                 2222                       # Number of write requests responded to by this memory
system.physmem.bw_read::switch_cpus0.inst       615359                       # Total read bandwidth from this memory (bytes/s)
system.physmem.bw_read::switch_cpus0.data     77804410                       # Total read bandwidth from this memory (bytes/s)
system.physmem.bw_read::switch_cpus1.inst       499979                       # Total read bandwidth from this memory (bytes/s)
system.physmem.bw_read::switch_cpus1.data    107803145                       # Total read bandwidth from this memory (bytes/s)
system.physmem.bw_read::switch_cpus2.inst       615359                       # Total read bandwidth from this memory (bytes/s)
system.physmem.bw_read::switch_cpus2.data     37344579                       # Total read bandwidth from this memory (bytes/s)
system.physmem.bw_read::switch_cpus3.inst       499979                       # Total read bandwidth from this memory (bytes/s)
system.physmem.bw_read::switch_cpus3.data     62843503                       # Total read bandwidth from this memory (bytes/s)
system.physmem.bw_read::total               288026312                       # Total read bandwidth from this memory (bytes/s)
system.physmem.bw_inst_read::switch_cpus0.inst       615359                       # Instruction read bandwidth from this memory (bytes/s)
system.physmem.bw_inst_read::switch_cpus1.inst       499979                       # Instruction read bandwidth from this memory (bytes/s)
system.physmem.bw_inst_read::switch_cpus2.inst       615359                       # Instruction read bandwidth from this memory (bytes/s)
system.physmem.bw_inst_read::switch_cpus3.inst       499979                       # Instruction read bandwidth from this memory (bytes/s)
system.physmem.bw_inst_read::total            2230675                       # Instruction read bandwidth from this memory (bytes/s)
system.physmem.bw_write::writebacks          85457934                       # Write bandwidth from this memory (bytes/s)
system.physmem.bw_write::total               85457934                       # Write bandwidth from this memory (bytes/s)
system.physmem.bw_total::writebacks          85457934                       # Total bandwidth to/from this memory (bytes/s)
system.physmem.bw_total::switch_cpus0.inst       615359                       # Total bandwidth to/from this memory (bytes/s)
system.physmem.bw_total::switch_cpus0.data     77804410                       # Total bandwidth to/from this memory (bytes/s)
system.physmem.bw_total::switch_cpus1.inst       499979                       # Total bandwidth to/from this memory (bytes/s)
system.physmem.bw_total::switch_cpus1.data    107803145                       # Total bandwidth to/from this memory (bytes/s)
system.physmem.bw_total::switch_cpus2.inst       615359                       # Total bandwidth to/from this memory (bytes/s)
system.physmem.bw_total::switch_cpus2.data     37344579                       # Total bandwidth to/from this memory (bytes/s)
system.physmem.bw_total::switch_cpus3.inst       499979                       # Total bandwidth to/from this memory (bytes/s)
system.physmem.bw_total::switch_cpus3.data     62843503                       # Total bandwidth to/from this memory (bytes/s)
system.physmem.bw_total::total              373484245                       # Total bandwidth to/from this memory (bytes/s)
system.switch_cpus0.dtb.inst_hits                   0                       # ITB inst hits
system.switch_cpus0.dtb.inst_misses                 0                       # ITB inst misses
system.switch_cpus0.dtb.read_hits                   0                       # DTB read hits
system.switch_cpus0.dtb.read_misses                 0                       # DTB read misses
system.switch_cpus0.dtb.write_hits                  0                       # DTB write hits
system.switch_cpus0.dtb.write_misses                0                       # DTB write misses
system.switch_cpus0.dtb.flush_tlb                   0                       # Number of times complete TLB was flushed
system.switch_cpus0.dtb.flush_tlb_mva               0                       # Number of times TLB was flushed by MVA
system.switch_cpus0.dtb.flush_tlb_mva_asid            0                       # Number of times TLB was flushed by MVA & ASID
system.switch_cpus0.dtb.flush_tlb_asid              0                       # Number of times TLB was flushed by ASID
system.switch_cpus0.dtb.flush_entries               0                       # Number of entries that have been flushed from TLB
system.switch_cpus0.dtb.align_faults                0                       # Number of TLB faults due to alignment restrictions
system.switch_cpus0.dtb.prefetch_faults             0                       # Number of TLB faults due to prefetch
system.switch_cpus0.dtb.domain_faults               0                       # Number of TLB faults due to domain restrictions
system.switch_cpus0.dtb.perms_faults                0                       # Number of TLB faults due to permissions restrictions
system.switch_cpus0.dtb.read_accesses               0                       # DTB read accesses
system.switch_cpus0.dtb.write_accesses              0                       # DTB write accesses
system.switch_cpus0.dtb.inst_accesses               0                       # ITB inst accesses
system.switch_cpus0.dtb.hits                        0                       # DTB hits
system.switch_cpus0.dtb.misses                      0                       # DTB misses
system.switch_cpus0.dtb.accesses                    0                       # DTB accesses
system.switch_cpus0.itb.inst_hits                   0                       # ITB inst hits
system.switch_cpus0.itb.inst_misses                 0                       # ITB inst misses
system.switch_cpus0.itb.read_hits                   0                       # DTB read hits
system.switch_cpus0.itb.read_misses                 0                       # DTB read misses
system.switch_cpus0.itb.write_hits                  0                       # DTB write hits
system.switch_cpus0.itb.write_misses                0                       # DTB write misses
system.switch_cpus0.itb.flush_tlb                   0                       # Number of times complete TLB was flushed
system.switch_cpus0.itb.flush_tlb_mva               0                       # Number of times TLB was flushed by MVA
system.switch_cpus0.itb.flush_tlb_mva_asid            0                       # Number of times TLB was flushed by MVA & ASID
system.switch_cpus0.itb.flush_tlb_asid              0                       # Number of times TLB was flushed by ASID
system.switch_cpus0.itb.flush_entries               0                       # Number of entries that have been flushed from TLB
system.switch_cpus0.itb.align_faults                0                       # Number of TLB faults due to alignment restrictions
system.switch_cpus0.itb.prefetch_faults             0                       # Number of TLB faults due to prefetch
system.switch_cpus0.itb.domain_faults               0                       # Number of TLB faults due to domain restrictions
system.switch_cpus0.itb.perms_faults                0                       # Number of TLB faults due to permissions restrictions
system.switch_cpus0.itb.read_accesses               0                       # DTB read accesses
system.switch_cpus0.itb.write_accesses              0                       # DTB write accesses
system.switch_cpus0.itb.inst_accesses               0                       # ITB inst accesses
system.switch_cpus0.itb.hits                        0                       # DTB hits
system.switch_cpus0.itb.misses                      0                       # DTB misses
system.switch_cpus0.itb.accesses                    0                       # DTB accesses
system.cpu0.workload.num_syscalls                   0                       # Number of system calls
system.switch_cpus0.numCycles                 7981153                       # number of cpu cycles simulated
system.switch_cpus0.numWorkItemsStarted             0                       # number of work items this cpu started
system.switch_cpus0.numWorkItemsCompleted            0                       # number of work items this cpu completed
system.switch_cpus0.BPredUnit.lookups         2871246                       # Number of BP lookups
system.switch_cpus0.BPredUnit.condPredicted      2508108                       # Number of conditional branches predicted
system.switch_cpus0.BPredUnit.condIncorrect       185222                       # Number of conditional branches incorrect
system.switch_cpus0.BPredUnit.BTBLookups      1416058                       # Number of BTB lookups
system.switch_cpus0.BPredUnit.BTBHits         1373932                       # Number of BTB hits
system.switch_cpus0.BPredUnit.BTBCorrect            0                       # Number of correct BTB predictions (this stat may not work properly.
system.switch_cpus0.BPredUnit.usedRAS          207525                       # Number of times the RAS was used to get a target.
system.switch_cpus0.BPredUnit.RASInCorrect         5898                       # Number of incorrect RAS predictions.
system.switch_cpus0.fetch.icacheStallCycles      3383637                       # Number of cycles fetch is stalled on an Icache miss
system.switch_cpus0.fetch.Insts              15968629                       # Number of instructions fetch has processed
system.switch_cpus0.fetch.Branches            2871246                       # Number of branches that fetch encountered
system.switch_cpus0.fetch.predictedBranches      1581457                       # Number of branches that fetch has predicted taken
system.switch_cpus0.fetch.Cycles              3289222                       # Number of cycles fetch has run and was not squashing or blocked
system.switch_cpus0.fetch.SquashCycles         907983                       # Number of cycles fetch has spent squashing
system.switch_cpus0.fetch.BlockedCycles        411836                       # Number of cycles fetch has spent blocked
system.switch_cpus0.fetch.PendingTrapStallCycles           18                       # Number of stall cycles due to pending traps
system.switch_cpus0.fetch.CacheLines          1668216                       # Number of cache lines fetched
system.switch_cpus0.fetch.IcacheSquashes        74035                       # Number of outstanding Icache misses that were squashed
system.switch_cpus0.fetch.rateDist::samples      7806436                       # Number of instructions fetched each cycle (Total)
system.switch_cpus0.fetch.rateDist::mean     2.357265                       # Number of instructions fetched each cycle (Total)
system.switch_cpus0.fetch.rateDist::stdev     3.170437                       # Number of instructions fetched each cycle (Total)
system.switch_cpus0.fetch.rateDist::underflows            0      0.00%      0.00% # Number of instructions fetched each cycle (Total)
system.switch_cpus0.fetch.rateDist::0         4517214     57.87%     57.87% # Number of instructions fetched each cycle (Total)
system.switch_cpus0.fetch.rateDist::1          163814      2.10%     59.96% # Number of instructions fetched each cycle (Total)
system.switch_cpus0.fetch.rateDist::2          298137      3.82%     63.78% # Number of instructions fetched each cycle (Total)
system.switch_cpus0.fetch.rateDist::3          281262      3.60%     67.39% # Number of instructions fetched each cycle (Total)
system.switch_cpus0.fetch.rateDist::4          456469      5.85%     73.23% # Number of instructions fetched each cycle (Total)
system.switch_cpus0.fetch.rateDist::5          476398      6.10%     79.34% # Number of instructions fetched each cycle (Total)
system.switch_cpus0.fetch.rateDist::6          114506      1.47%     80.80% # Number of instructions fetched each cycle (Total)
system.switch_cpus0.fetch.rateDist::7           86026      1.10%     81.90% # Number of instructions fetched each cycle (Total)
system.switch_cpus0.fetch.rateDist::8         1412610     18.10%    100.00% # Number of instructions fetched each cycle (Total)
system.switch_cpus0.fetch.rateDist::overflows            0      0.00%    100.00% # Number of instructions fetched each cycle (Total)
system.switch_cpus0.fetch.rateDist::min_value            0                       # Number of instructions fetched each cycle (Total)
system.switch_cpus0.fetch.rateDist::max_value            8                       # Number of instructions fetched each cycle (Total)
system.switch_cpus0.fetch.rateDist::total      7806436                       # Number of instructions fetched each cycle (Total)
system.switch_cpus0.fetch.branchRate         0.359753                       # Number of branch fetches per cycle
system.switch_cpus0.fetch.rate               2.000792                       # Number of inst fetches per cycle
system.switch_cpus0.decode.IdleCycles         3493757                       # Number of cycles decode is idle
system.switch_cpus0.decode.BlockedCycles       398151                       # Number of cycles decode is blocked
system.switch_cpus0.decode.RunCycles          3180527                       # Number of cycles decode is running
system.switch_cpus0.decode.UnblockCycles        12977                       # Number of cycles decode is unblocking
system.switch_cpus0.decode.SquashCycles        721014                       # Number of cycles decode is squashing
system.switch_cpus0.decode.BranchResolved       313144                       # Number of times decode resolved a branch
system.switch_cpus0.decode.BranchMispred          724                       # Number of times decode detected a branch misprediction
system.switch_cpus0.decode.DecodedInsts      17872968                       # Number of instructions handled by decode
system.switch_cpus0.decode.SquashedInsts         1309                       # Number of squashed instructions handled by decode
system.switch_cpus0.rename.SquashCycles        721014                       # Number of cycles rename is squashing
system.switch_cpus0.rename.IdleCycles         3642866                       # Number of cycles rename is idle
system.switch_cpus0.rename.BlockCycles         148081                       # Number of cycles rename is blocking
system.switch_cpus0.rename.serializeStallCycles        44219                       # count of cycles rename stalled for serializing inst
system.switch_cpus0.rename.RunCycles          3043412                       # Number of cycles rename is running
system.switch_cpus0.rename.UnblockCycles       206835                       # Number of cycles rename is unblocking
system.switch_cpus0.rename.RenamedInsts      17394180                       # Number of instructions processed by rename
system.switch_cpus0.rename.ROBFullEvents            8                       # Number of times rename has blocked due to ROB full
system.switch_cpus0.rename.IQFullEvents         69399                       # Number of times rename has blocked due to IQ full
system.switch_cpus0.rename.LSQFullEvents        85694                       # Number of times rename has blocked due to LSQ full
system.switch_cpus0.rename.RenamedOperands     23105465                       # Number of destination operands rename has renamed
system.switch_cpus0.rename.RenameLookups     79191724                       # Number of register rename lookups that rename has made
system.switch_cpus0.rename.int_rename_lookups     79191724                       # Number of integer rename lookups
system.switch_cpus0.rename.CommittedMaps     14913019                       # Number of HB maps that are committed
system.switch_cpus0.rename.UndoneMaps         8192415                       # Number of HB maps that are undone due to squashing
system.switch_cpus0.rename.serializingInsts         2034                       # count of serializing insts renamed
system.switch_cpus0.rename.tempSerializingInsts         1003                       # count of temporary serializing insts renamed
system.switch_cpus0.rename.skidInsts           552859                       # count of insts added to the skid buffer
system.switch_cpus0.memDep0.insertedLoads      2669898                       # Number of loads inserted to the mem dependence unit.
system.switch_cpus0.memDep0.insertedStores       582771                       # Number of stores inserted to the mem dependence unit.
system.switch_cpus0.memDep0.conflictingLoads         9863                       # Number of conflicting loads.
system.switch_cpus0.memDep0.conflictingStores       196807                       # Number of conflicting stores.
system.switch_cpus0.iq.iqInstsAdded          16447504                       # Number of instructions added to the IQ (excludes non-spec)
system.switch_cpus0.iq.iqNonSpecInstsAdded         2003                       # Number of non-speculative instructions added to the IQ
system.switch_cpus0.iq.iqInstsIssued         13841539                       # Number of instructions issued
system.switch_cpus0.iq.iqSquashedInstsIssued        18482                       # Number of squashed instructions issued
system.switch_cpus0.iq.iqSquashedInstsExamined      5016657                       # Number of squashed instructions iterated over during squash; mainly for profiling
system.switch_cpus0.iq.iqSquashedOperandsExamined     13764354                       # Number of squashed operands that are examined and possibly removed from graph
system.switch_cpus0.iq.iqSquashedNonSpecRemoved            3                       # Number of squashed non-spec instructions that were removed
system.switch_cpus0.iq.issued_per_cycle::samples      7806436                       # Number of insts issued each cycle
system.switch_cpus0.iq.issued_per_cycle::mean     1.773093                       # Number of insts issued each cycle
system.switch_cpus0.iq.issued_per_cycle::stdev     1.839714                       # Number of insts issued each cycle
system.switch_cpus0.iq.issued_per_cycle::underflows            0      0.00%      0.00% # Number of insts issued each cycle
system.switch_cpus0.iq.issued_per_cycle::0      2738719     35.08%     35.08% # Number of insts issued each cycle
system.switch_cpus0.iq.issued_per_cycle::1      1452251     18.60%     53.69% # Number of insts issued each cycle
system.switch_cpus0.iq.issued_per_cycle::2      1258634     16.12%     69.81% # Number of insts issued each cycle
system.switch_cpus0.iq.issued_per_cycle::3       772398      9.89%     79.70% # Number of insts issued each cycle
system.switch_cpus0.iq.issued_per_cycle::4       806163     10.33%     90.03% # Number of insts issued each cycle
system.switch_cpus0.iq.issued_per_cycle::5       472320      6.05%     96.08% # Number of insts issued each cycle
system.switch_cpus0.iq.issued_per_cycle::6       211624      2.71%     98.79% # Number of insts issued each cycle
system.switch_cpus0.iq.issued_per_cycle::7        55786      0.71%     99.51% # Number of insts issued each cycle
system.switch_cpus0.iq.issued_per_cycle::8        38541      0.49%    100.00% # Number of insts issued each cycle
system.switch_cpus0.iq.issued_per_cycle::overflows            0      0.00%    100.00% # Number of insts issued each cycle
system.switch_cpus0.iq.issued_per_cycle::min_value            0                       # Number of insts issued each cycle
system.switch_cpus0.iq.issued_per_cycle::max_value            8                       # Number of insts issued each cycle
system.switch_cpus0.iq.issued_per_cycle::total      7806436                       # Number of insts issued each cycle
system.switch_cpus0.iq.fu_full::No_OpClass            0      0.00%      0.00% # attempts to use FU when none available
system.switch_cpus0.iq.fu_full::IntAlu          54514     66.07%     66.07% # attempts to use FU when none available
system.switch_cpus0.iq.fu_full::IntMult             0      0.00%     66.07% # attempts to use FU when none available
system.switch_cpus0.iq.fu_full::IntDiv              0      0.00%     66.07% # attempts to use FU when none available
system.switch_cpus0.iq.fu_full::FloatAdd            0      0.00%     66.07% # attempts to use FU when none available
system.switch_cpus0.iq.fu_full::FloatCmp            0      0.00%     66.07% # attempts to use FU when none available
system.switch_cpus0.iq.fu_full::FloatCvt            0      0.00%     66.07% # attempts to use FU when none available
system.switch_cpus0.iq.fu_full::FloatMult            0      0.00%     66.07% # attempts to use FU when none available
system.switch_cpus0.iq.fu_full::FloatDiv            0      0.00%     66.07% # attempts to use FU when none available
system.switch_cpus0.iq.fu_full::FloatSqrt            0      0.00%     66.07% # attempts to use FU when none available
system.switch_cpus0.iq.fu_full::SimdAdd             0      0.00%     66.07% # attempts to use FU when none available
system.switch_cpus0.iq.fu_full::SimdAddAcc            0      0.00%     66.07% # attempts to use FU when none available
system.switch_cpus0.iq.fu_full::SimdAlu             0      0.00%     66.07% # attempts to use FU when none available
system.switch_cpus0.iq.fu_full::SimdCmp             0      0.00%     66.07% # attempts to use FU when none available
system.switch_cpus0.iq.fu_full::SimdCvt             0      0.00%     66.07% # attempts to use FU when none available
system.switch_cpus0.iq.fu_full::SimdMisc            0      0.00%     66.07% # attempts to use FU when none available
system.switch_cpus0.iq.fu_full::SimdMult            0      0.00%     66.07% # attempts to use FU when none available
system.switch_cpus0.iq.fu_full::SimdMultAcc            0      0.00%     66.07% # attempts to use FU when none available
system.switch_cpus0.iq.fu_full::SimdShift            0      0.00%     66.07% # attempts to use FU when none available
system.switch_cpus0.iq.fu_full::SimdShiftAcc            0      0.00%     66.07% # attempts to use FU when none available
system.switch_cpus0.iq.fu_full::SimdSqrt            0      0.00%     66.07% # attempts to use FU when none available
system.switch_cpus0.iq.fu_full::SimdFloatAdd            0      0.00%     66.07% # attempts to use FU when none available
system.switch_cpus0.iq.fu_full::SimdFloatAlu            0      0.00%     66.07% # attempts to use FU when none available
system.switch_cpus0.iq.fu_full::SimdFloatCmp            0      0.00%     66.07% # attempts to use FU when none available
system.switch_cpus0.iq.fu_full::SimdFloatCvt            0      0.00%     66.07% # attempts to use FU when none available
system.switch_cpus0.iq.fu_full::SimdFloatDiv            0      0.00%     66.07% # attempts to use FU when none available
system.switch_cpus0.iq.fu_full::SimdFloatMisc            0      0.00%     66.07% # attempts to use FU when none available
system.switch_cpus0.iq.fu_full::SimdFloatMult            0      0.00%     66.07% # attempts to use FU when none available
system.switch_cpus0.iq.fu_full::SimdFloatMultAcc            0      0.00%     66.07% # attempts to use FU when none available
system.switch_cpus0.iq.fu_full::SimdFloatSqrt            0      0.00%     66.07% # attempts to use FU when none available
system.switch_cpus0.iq.fu_full::MemRead         17895     21.69%     87.76% # attempts to use FU when none available
system.switch_cpus0.iq.fu_full::MemWrite        10102     12.24%    100.00% # attempts to use FU when none available
system.switch_cpus0.iq.fu_full::IprAccess            0      0.00%    100.00% # attempts to use FU when none available
system.switch_cpus0.iq.fu_full::InstPrefetch            0      0.00%    100.00% # attempts to use FU when none available
system.switch_cpus0.iq.FU_type_0::No_OpClass            0      0.00%      0.00% # Type of FU issued
system.switch_cpus0.iq.FU_type_0::IntAlu     10860704     78.46%     78.46% # Type of FU issued
system.switch_cpus0.iq.FU_type_0::IntMult       109558      0.79%     79.26% # Type of FU issued
system.switch_cpus0.iq.FU_type_0::IntDiv            0      0.00%     79.26% # Type of FU issued
system.switch_cpus0.iq.FU_type_0::FloatAdd            0      0.00%     79.26% # Type of FU issued
system.switch_cpus0.iq.FU_type_0::FloatCmp            0      0.00%     79.26% # Type of FU issued
system.switch_cpus0.iq.FU_type_0::FloatCvt            0      0.00%     79.26% # Type of FU issued
system.switch_cpus0.iq.FU_type_0::FloatMult            0      0.00%     79.26% # Type of FU issued
system.switch_cpus0.iq.FU_type_0::FloatDiv            0      0.00%     79.26% # Type of FU issued
system.switch_cpus0.iq.FU_type_0::FloatSqrt            0      0.00%     79.26% # Type of FU issued
system.switch_cpus0.iq.FU_type_0::SimdAdd            0      0.00%     79.26% # Type of FU issued
system.switch_cpus0.iq.FU_type_0::SimdAddAcc            0      0.00%     79.26% # Type of FU issued
system.switch_cpus0.iq.FU_type_0::SimdAlu            0      0.00%     79.26% # Type of FU issued
system.switch_cpus0.iq.FU_type_0::SimdCmp            0      0.00%     79.26% # Type of FU issued
system.switch_cpus0.iq.FU_type_0::SimdCvt            0      0.00%     79.26% # Type of FU issued
system.switch_cpus0.iq.FU_type_0::SimdMisc            0      0.00%     79.26% # Type of FU issued
system.switch_cpus0.iq.FU_type_0::SimdMult            0      0.00%     79.26% # Type of FU issued
system.switch_cpus0.iq.FU_type_0::SimdMultAcc            0      0.00%     79.26% # Type of FU issued
system.switch_cpus0.iq.FU_type_0::SimdShift            0      0.00%     79.26% # Type of FU issued
system.switch_cpus0.iq.FU_type_0::SimdShiftAcc            0      0.00%     79.26% # Type of FU issued
system.switch_cpus0.iq.FU_type_0::SimdSqrt            0      0.00%     79.26% # Type of FU issued
system.switch_cpus0.iq.FU_type_0::SimdFloatAdd            0      0.00%     79.26% # Type of FU issued
system.switch_cpus0.iq.FU_type_0::SimdFloatAlu            0      0.00%     79.26% # Type of FU issued
system.switch_cpus0.iq.FU_type_0::SimdFloatCmp            0      0.00%     79.26% # Type of FU issued
system.switch_cpus0.iq.FU_type_0::SimdFloatCvt            0      0.00%     79.26% # Type of FU issued
system.switch_cpus0.iq.FU_type_0::SimdFloatDiv            0      0.00%     79.26% # Type of FU issued
system.switch_cpus0.iq.FU_type_0::SimdFloatMisc         1000      0.01%     79.26% # Type of FU issued
system.switch_cpus0.iq.FU_type_0::SimdFloatMult            0      0.00%     79.26% # Type of FU issued
system.switch_cpus0.iq.FU_type_0::SimdFloatMultAcc            0      0.00%     79.26% # Type of FU issued
system.switch_cpus0.iq.FU_type_0::SimdFloatSqrt            0      0.00%     79.26% # Type of FU issued
system.switch_cpus0.iq.FU_type_0::MemRead      2375104     17.16%     96.42% # Type of FU issued
system.switch_cpus0.iq.FU_type_0::MemWrite       495173      3.58%    100.00% # Type of FU issued
system.switch_cpus0.iq.FU_type_0::IprAccess            0      0.00%    100.00% # Type of FU issued
system.switch_cpus0.iq.FU_type_0::InstPrefetch            0      0.00%    100.00% # Type of FU issued
system.switch_cpus0.iq.FU_type_0::total      13841539                       # Type of FU issued
system.switch_cpus0.iq.rate                  1.734278                       # Inst issue rate
system.switch_cpus0.iq.fu_busy_cnt              82511                       # FU busy when requested
system.switch_cpus0.iq.fu_busy_rate          0.005961                       # FU busy rate (busy events/executed inst)
system.switch_cpus0.iq.int_inst_queue_reads     35590506                       # Number of integer instruction queue reads
system.switch_cpus0.iq.int_inst_queue_writes     21466212                       # Number of integer instruction queue writes
system.switch_cpus0.iq.int_inst_queue_wakeup_accesses     13380752                       # Number of integer instruction queue wakeup accesses
system.switch_cpus0.iq.fp_inst_queue_reads            0                       # Number of floating instruction queue reads
system.switch_cpus0.iq.fp_inst_queue_writes            0                       # Number of floating instruction queue writes
system.switch_cpus0.iq.fp_inst_queue_wakeup_accesses            0                       # Number of floating instruction queue wakeup accesses
system.switch_cpus0.iq.int_alu_accesses      13924050                       # Number of integer alu accesses
system.switch_cpus0.iq.fp_alu_accesses              0                       # Number of floating point alu accesses
system.switch_cpus0.iew.lsq.thread0.forwLoads        34657                       # Number of loads that had data forwarded from stores
system.switch_cpus0.iew.lsq.thread0.invAddrLoads            0                       # Number of loads ignored due to an invalid address
system.switch_cpus0.iew.lsq.thread0.squashedLoads       784944                       # Number of loads squashed
system.switch_cpus0.iew.lsq.thread0.ignoredResponses           93                       # Number of memory responses ignored because the instruction is squashed
system.switch_cpus0.iew.lsq.thread0.memOrderViolation           48                       # Number of memory ordering violations
system.switch_cpus0.iew.lsq.thread0.squashedStores       143830                       # Number of stores squashed
system.switch_cpus0.iew.lsq.thread0.invAddrSwpfs            0                       # Number of software prefetches ignored due to an invalid address
system.switch_cpus0.iew.lsq.thread0.blockedLoads            0                       # Number of blocked loads due to partial load-store forwarding
system.switch_cpus0.iew.lsq.thread0.rescheduledLoads            0                       # Number of loads that were rescheduled
system.switch_cpus0.iew.lsq.thread0.cacheBlocked            0                       # Number of times an access to memory failed due to the cache being blocked
system.switch_cpus0.iew.iewIdleCycles               0                       # Number of cycles IEW is idle
system.switch_cpus0.iew.iewSquashCycles        721014                       # Number of cycles IEW is squashing
system.switch_cpus0.iew.iewBlockCycles          84034                       # Number of cycles IEW is blocking
system.switch_cpus0.iew.iewUnblockCycles         6485                       # Number of cycles IEW is unblocking
system.switch_cpus0.iew.iewDispatchedInsts     16449510                       # Number of instructions dispatched to IQ
system.switch_cpus0.iew.iewDispSquashedInsts        19683                       # Number of squashed instructions skipped by dispatch
system.switch_cpus0.iew.iewDispLoadInsts      2669898                       # Number of dispatched load instructions
system.switch_cpus0.iew.iewDispStoreInsts       582771                       # Number of dispatched store instructions
system.switch_cpus0.iew.iewDispNonSpecInsts         1003                       # Number of dispatched non-speculative instructions
system.switch_cpus0.iew.iewIQFullEvents          3192                       # Number of times the IQ has become full, causing a stall
system.switch_cpus0.iew.iewLSQFullEvents           31                       # Number of times the LSQ has become full, causing a stall
system.switch_cpus0.iew.memOrderViolationEvents           48                       # Number of memory order violations
system.switch_cpus0.iew.predictedTakenIncorrect        97767                       # Number of branches that were predicted taken incorrectly
system.switch_cpus0.iew.predictedNotTakenIncorrect       110017                       # Number of branches that were predicted not taken incorrectly
system.switch_cpus0.iew.branchMispredicts       207784                       # Number of branch mispredicts detected at execute
system.switch_cpus0.iew.iewExecutedInsts     13577428                       # Number of executed instructions
system.switch_cpus0.iew.iewExecLoadInsts      2280692                       # Number of load instructions executed
system.switch_cpus0.iew.iewExecSquashedInsts       264110                       # Number of squashed instructions skipped in execute
system.switch_cpus0.iew.exec_swp                    0                       # number of swp insts executed
system.switch_cpus0.iew.exec_nop                    3                       # number of nop insts executed
system.switch_cpus0.iew.exec_refs             2763581                       # number of memory reference insts executed
system.switch_cpus0.iew.exec_branches         2048450                       # Number of branches executed
system.switch_cpus0.iew.exec_stores            482889                       # Number of stores executed
system.switch_cpus0.iew.exec_rate            1.701186                       # Inst execution rate
system.switch_cpus0.iew.wb_sent              13396222                       # cumulative count of insts sent to commit
system.switch_cpus0.iew.wb_count             13380752                       # cumulative count of insts written-back
system.switch_cpus0.iew.wb_producers          8219296                       # num instructions producing a value
system.switch_cpus0.iew.wb_consumers         20101880                       # num instructions consuming a value
system.switch_cpus0.iew.wb_penalized                0                       # number of instrctions required to write to 'other' IQ
system.switch_cpus0.iew.wb_rate              1.676544                       # insts written-back per cycle
system.switch_cpus0.iew.wb_fanout            0.408882                       # average fanout of values written-back
system.switch_cpus0.iew.wb_penalized_rate            0                       # fraction of instructions written-back that wrote to 'other' IQ
system.switch_cpus0.commit.commitCommittedInsts     10000002                       # The number of committed instructions
system.switch_cpus0.commit.commitCommittedOps     11371778                       # The number of committed instructions
system.switch_cpus0.commit.commitSquashedInsts      5077811                       # The number of squashed insts skipped by commit
system.switch_cpus0.commit.commitNonSpecStalls         2000                       # The number of times commit has been forced to stall to communicate backwards
system.switch_cpus0.commit.branchMispredicts       185516                       # The number of times a branch was mispredicted
system.switch_cpus0.commit.committed_per_cycle::samples      7085422                       # Number of insts commited each cycle
system.switch_cpus0.commit.committed_per_cycle::mean     1.604954                       # Number of insts commited each cycle
system.switch_cpus0.commit.committed_per_cycle::stdev     2.307974                       # Number of insts commited each cycle
system.switch_cpus0.commit.committed_per_cycle::underflows            0      0.00%      0.00% # Number of insts commited each cycle
system.switch_cpus0.commit.committed_per_cycle::0      3289816     46.43%     46.43% # Number of insts commited each cycle
system.switch_cpus0.commit.committed_per_cycle::1      1493683     21.08%     67.51% # Number of insts commited each cycle
system.switch_cpus0.commit.committed_per_cycle::2       833942     11.77%     79.28% # Number of insts commited each cycle
system.switch_cpus0.commit.committed_per_cycle::3       283172      4.00%     83.28% # Number of insts commited each cycle
system.switch_cpus0.commit.committed_per_cycle::4       273076      3.85%     87.13% # Number of insts commited each cycle
system.switch_cpus0.commit.committed_per_cycle::5       113595      1.60%     88.74% # Number of insts commited each cycle
system.switch_cpus0.commit.committed_per_cycle::6       297908      4.20%     92.94% # Number of insts commited each cycle
system.switch_cpus0.commit.committed_per_cycle::7        88872      1.25%     94.19% # Number of insts commited each cycle
system.switch_cpus0.commit.committed_per_cycle::8       411358      5.81%    100.00% # Number of insts commited each cycle
system.switch_cpus0.commit.committed_per_cycle::overflows            0      0.00%    100.00% # Number of insts commited each cycle
system.switch_cpus0.commit.committed_per_cycle::min_value            0                       # Number of insts commited each cycle
system.switch_cpus0.commit.committed_per_cycle::max_value            8                       # Number of insts commited each cycle
system.switch_cpus0.commit.committed_per_cycle::total      7085422                       # Number of insts commited each cycle
system.switch_cpus0.commit.committedInsts     10000002                       # Number of instructions committed
system.switch_cpus0.commit.committedOps      11371778                       # Number of ops (including micro ops) committed
system.switch_cpus0.commit.swp_count                0                       # Number of s/w prefetches committed
system.switch_cpus0.commit.refs               2323892                       # Number of memory references committed
system.switch_cpus0.commit.loads              1884951                       # Number of loads committed
system.switch_cpus0.commit.membars               1000                       # Number of memory barriers committed
system.switch_cpus0.commit.branches           1779029                       # Number of branches committed
system.switch_cpus0.commit.fp_insts                 0                       # Number of committed floating point instructions.
system.switch_cpus0.commit.int_insts          9931216                       # Number of committed integer instructions.
system.switch_cpus0.commit.function_calls       154874                       # Number of function calls committed.
system.switch_cpus0.commit.bw_lim_events       411358                       # number cycles where commit BW limit reached
system.switch_cpus0.commit.bw_limited               0                       # number of insts not committed due to BW limits
system.switch_cpus0.rob.rob_reads            23123653                       # The number of ROB reads
system.switch_cpus0.rob.rob_writes           33620806                       # The number of ROB writes
system.switch_cpus0.timesIdled                   3570                       # Number of times that the entire CPU went into an idle state and unscheduled itself
system.switch_cpus0.idleCycles                 174717                       # Total number of cycles that the CPU has spent unscheduled due to idling
system.switch_cpus0.committedInsts           10000002                       # Number of Instructions Simulated
system.switch_cpus0.committedOps             11371778                       # Number of Ops (including micro ops) Simulated
system.switch_cpus0.committedInsts_total     10000002                       # Number of Instructions Simulated
system.switch_cpus0.cpi                      0.798115                       # CPI: Cycles Per Instruction
system.switch_cpus0.cpi_total                0.798115                       # CPI: Total CPI of All Threads
system.switch_cpus0.ipc                      1.252952                       # IPC: Instructions Per Cycle
system.switch_cpus0.ipc_total                1.252952                       # IPC: Total IPC of All Threads
system.switch_cpus0.int_regfile_reads        62783153                       # number of integer regfile reads
system.switch_cpus0.int_regfile_writes       17549407                       # number of integer regfile writes
system.switch_cpus0.misc_regfile_reads       18395108                       # number of misc regfile reads
system.switch_cpus0.misc_regfile_writes          2000                       # number of misc regfile writes
system.switch_cpus1.dtb.inst_hits                   0                       # ITB inst hits
system.switch_cpus1.dtb.inst_misses                 0                       # ITB inst misses
system.switch_cpus1.dtb.read_hits                   0                       # DTB read hits
system.switch_cpus1.dtb.read_misses                 0                       # DTB read misses
system.switch_cpus1.dtb.write_hits                  0                       # DTB write hits
system.switch_cpus1.dtb.write_misses                0                       # DTB write misses
system.switch_cpus1.dtb.flush_tlb                   0                       # Number of times complete TLB was flushed
system.switch_cpus1.dtb.flush_tlb_mva               0                       # Number of times TLB was flushed by MVA
system.switch_cpus1.dtb.flush_tlb_mva_asid            0                       # Number of times TLB was flushed by MVA & ASID
system.switch_cpus1.dtb.flush_tlb_asid              0                       # Number of times TLB was flushed by ASID
system.switch_cpus1.dtb.flush_entries               0                       # Number of entries that have been flushed from TLB
system.switch_cpus1.dtb.align_faults                0                       # Number of TLB faults due to alignment restrictions
system.switch_cpus1.dtb.prefetch_faults             0                       # Number of TLB faults due to prefetch
system.switch_cpus1.dtb.domain_faults               0                       # Number of TLB faults due to domain restrictions
system.switch_cpus1.dtb.perms_faults                0                       # Number of TLB faults due to permissions restrictions
system.switch_cpus1.dtb.read_accesses               0                       # DTB read accesses
system.switch_cpus1.dtb.write_accesses              0                       # DTB write accesses
system.switch_cpus1.dtb.inst_accesses               0                       # ITB inst accesses
system.switch_cpus1.dtb.hits                        0                       # DTB hits
system.switch_cpus1.dtb.misses                      0                       # DTB misses
system.switch_cpus1.dtb.accesses                    0                       # DTB accesses
system.switch_cpus1.itb.inst_hits                   0                       # ITB inst hits
system.switch_cpus1.itb.inst_misses                 0                       # ITB inst misses
system.switch_cpus1.itb.read_hits                   0                       # DTB read hits
system.switch_cpus1.itb.read_misses                 0                       # DTB read misses
system.switch_cpus1.itb.write_hits                  0                       # DTB write hits
system.switch_cpus1.itb.write_misses                0                       # DTB write misses
system.switch_cpus1.itb.flush_tlb                   0                       # Number of times complete TLB was flushed
system.switch_cpus1.itb.flush_tlb_mva               0                       # Number of times TLB was flushed by MVA
system.switch_cpus1.itb.flush_tlb_mva_asid            0                       # Number of times TLB was flushed by MVA & ASID
system.switch_cpus1.itb.flush_tlb_asid              0                       # Number of times TLB was flushed by ASID
system.switch_cpus1.itb.flush_entries               0                       # Number of entries that have been flushed from TLB
system.switch_cpus1.itb.align_faults                0                       # Number of TLB faults due to alignment restrictions
system.switch_cpus1.itb.prefetch_faults             0                       # Number of TLB faults due to prefetch
system.switch_cpus1.itb.domain_faults               0                       # Number of TLB faults due to domain restrictions
system.switch_cpus1.itb.perms_faults                0                       # Number of TLB faults due to permissions restrictions
system.switch_cpus1.itb.read_accesses               0                       # DTB read accesses
system.switch_cpus1.itb.write_accesses              0                       # DTB write accesses
system.switch_cpus1.itb.inst_accesses               0                       # ITB inst accesses
system.switch_cpus1.itb.hits                        0                       # DTB hits
system.switch_cpus1.itb.misses                      0                       # DTB misses
system.switch_cpus1.itb.accesses                    0                       # DTB accesses
system.cpu1.workload.num_syscalls                   0                       # Number of system calls
system.switch_cpus1.numCycles                 7981153                       # number of cpu cycles simulated
system.switch_cpus1.numWorkItemsStarted             0                       # number of work items this cpu started
system.switch_cpus1.numWorkItemsCompleted            0                       # number of work items this cpu completed
system.switch_cpus1.BPredUnit.lookups         2839583                       # Number of BP lookups
system.switch_cpus1.BPredUnit.condPredicted      2311369                       # Number of conditional branches predicted
system.switch_cpus1.BPredUnit.condIncorrect       194999                       # Number of conditional branches incorrect
system.switch_cpus1.BPredUnit.BTBLookups      1170110                       # Number of BTB lookups
system.switch_cpus1.BPredUnit.BTBHits         1100629                       # Number of BTB hits
system.switch_cpus1.BPredUnit.BTBCorrect            0                       # Number of correct BTB predictions (this stat may not work properly.
system.switch_cpus1.BPredUnit.usedRAS          297800                       # Number of times the RAS was used to get a target.
system.switch_cpus1.BPredUnit.RASInCorrect         8357                       # Number of incorrect RAS predictions.
system.switch_cpus1.fetch.icacheStallCycles      2843247                       # Number of cycles fetch is stalled on an Icache miss
system.switch_cpus1.fetch.Insts              15741888                       # Number of instructions fetch has processed
system.switch_cpus1.fetch.Branches            2839583                       # Number of branches that fetch encountered
system.switch_cpus1.fetch.predictedBranches      1398429                       # Number of branches that fetch has predicted taken
system.switch_cpus1.fetch.Cycles              3457990                       # Number of cycles fetch has run and was not squashing or blocked
system.switch_cpus1.fetch.SquashCycles        1042852                       # Number of cycles fetch has spent squashing
system.switch_cpus1.fetch.BlockedCycles        622870                       # Number of cycles fetch has spent blocked
system.switch_cpus1.fetch.PendingTrapStallCycles           12                       # Number of stall cycles due to pending traps
system.switch_cpus1.fetch.CacheLines          1391148                       # Number of cache lines fetched
system.switch_cpus1.fetch.IcacheSquashes        82084                       # Number of outstanding Icache misses that were squashed
system.switch_cpus1.fetch.rateDist::samples      7767696                       # Number of instructions fetched each cycle (Total)
system.switch_cpus1.fetch.rateDist::mean     2.502848                       # Number of instructions fetched each cycle (Total)
system.switch_cpus1.fetch.rateDist::stdev     3.304197                       # Number of instructions fetched each cycle (Total)
system.switch_cpus1.fetch.rateDist::underflows            0      0.00%      0.00% # Number of instructions fetched each cycle (Total)
system.switch_cpus1.fetch.rateDist::0         4309706     55.48%     55.48% # Number of instructions fetched each cycle (Total)
system.switch_cpus1.fetch.rateDist::1          303895      3.91%     59.39% # Number of instructions fetched each cycle (Total)
system.switch_cpus1.fetch.rateDist::2          245684      3.16%     62.56% # Number of instructions fetched each cycle (Total)
system.switch_cpus1.fetch.rateDist::3          594753      7.66%     70.21% # Number of instructions fetched each cycle (Total)
system.switch_cpus1.fetch.rateDist::4          159830      2.06%     72.27% # Number of instructions fetched each cycle (Total)
system.switch_cpus1.fetch.rateDist::5          206640      2.66%     74.93% # Number of instructions fetched each cycle (Total)
system.switch_cpus1.fetch.rateDist::6          152184      1.96%     76.89% # Number of instructions fetched each cycle (Total)
system.switch_cpus1.fetch.rateDist::7           83819      1.08%     77.97% # Number of instructions fetched each cycle (Total)
system.switch_cpus1.fetch.rateDist::8         1711185     22.03%    100.00% # Number of instructions fetched each cycle (Total)
system.switch_cpus1.fetch.rateDist::overflows            0      0.00%    100.00% # Number of instructions fetched each cycle (Total)
system.switch_cpus1.fetch.rateDist::min_value            0                       # Number of instructions fetched each cycle (Total)
system.switch_cpus1.fetch.rateDist::max_value            8                       # Number of instructions fetched each cycle (Total)
system.switch_cpus1.fetch.rateDist::total      7767696                       # Number of instructions fetched each cycle (Total)
system.switch_cpus1.fetch.branchRate         0.355786                       # Number of branch fetches per cycle
system.switch_cpus1.fetch.rate               1.972383                       # Number of inst fetches per cycle
system.switch_cpus1.decode.IdleCycles         2975516                       # Number of cycles decode is idle
system.switch_cpus1.decode.BlockedCycles       606065                       # Number of cycles decode is blocked
system.switch_cpus1.decode.RunCycles          3323378                       # Number of cycles decode is running
system.switch_cpus1.decode.UnblockCycles        23370                       # Number of cycles decode is unblocking
system.switch_cpus1.decode.SquashCycles        839362                       # Number of cycles decode is squashing
system.switch_cpus1.decode.BranchResolved       482232                       # Number of times decode resolved a branch
system.switch_cpus1.decode.BranchMispred         4268                       # Number of times decode detected a branch misprediction
system.switch_cpus1.decode.DecodedInsts      18805495                       # Number of instructions handled by decode
system.switch_cpus1.decode.SquashedInsts         9590                       # Number of squashed instructions handled by decode
system.switch_cpus1.rename.SquashCycles        839362                       # Number of cycles rename is squashing
system.switch_cpus1.rename.IdleCycles         3194074                       # Number of cycles rename is idle
system.switch_cpus1.rename.BlockCycles         138631                       # Number of cycles rename is blocking
system.switch_cpus1.rename.serializeStallCycles       143243                       # count of cycles rename stalled for serializing inst
system.switch_cpus1.rename.RunCycles          3122885                       # Number of cycles rename is running
system.switch_cpus1.rename.UnblockCycles       329496                       # Number of cycles rename is unblocking
system.switch_cpus1.rename.RenamedInsts      18139854                       # Number of instructions processed by rename
system.switch_cpus1.rename.ROBFullEvents         3730                       # Number of times rename has blocked due to ROB full
system.switch_cpus1.rename.IQFullEvents        135918                       # Number of times rename has blocked due to IQ full
system.switch_cpus1.rename.LSQFullEvents       101904                       # Number of times rename has blocked due to LSQ full
system.switch_cpus1.rename.FullRegisterEvents         1335                       # Number of times there has been no free registers
system.switch_cpus1.rename.RenamedOperands     25400944                       # Number of destination operands rename has renamed
system.switch_cpus1.rename.RenameLookups     84664040                       # Number of register rename lookups that rename has made
system.switch_cpus1.rename.int_rename_lookups     84664040                       # Number of integer rename lookups
system.switch_cpus1.rename.CommittedMaps     15532752                       # Number of HB maps that are committed
system.switch_cpus1.rename.UndoneMaps         9868153                       # Number of HB maps that are undone due to squashing
system.switch_cpus1.rename.serializingInsts         3736                       # count of serializing insts renamed
system.switch_cpus1.rename.tempSerializingInsts         2127                       # count of temporary serializing insts renamed
system.switch_cpus1.rename.skidInsts           903295                       # count of insts added to the skid buffer
system.switch_cpus1.memDep0.insertedLoads      1693012                       # Number of loads inserted to the mem dependence unit.
system.switch_cpus1.memDep0.insertedStores       861432                       # Number of stores inserted to the mem dependence unit.
system.switch_cpus1.memDep0.conflictingLoads        13697                       # Number of conflicting loads.
system.switch_cpus1.memDep0.conflictingStores       271007                       # Number of conflicting stores.
system.switch_cpus1.iq.iqInstsAdded          17141871                       # Number of instructions added to the IQ (excludes non-spec)
system.switch_cpus1.iq.iqNonSpecInstsAdded         3618                       # Number of non-speculative instructions added to the IQ
system.switch_cpus1.iq.iqInstsIssued         13601135                       # Number of instructions issued
system.switch_cpus1.iq.iqSquashedInstsIssued        27590                       # Number of squashed instructions issued
system.switch_cpus1.iq.iqSquashedInstsExamined      5940318                       # Number of squashed instructions iterated over during squash; mainly for profiling
system.switch_cpus1.iq.iqSquashedOperandsExamined     18155607                       # Number of squashed operands that are examined and possibly removed from graph
system.switch_cpus1.iq.iqSquashedNonSpecRemoved          606                       # Number of squashed non-spec instructions that were removed
system.switch_cpus1.iq.issued_per_cycle::samples      7767696                       # Number of insts issued each cycle
system.switch_cpus1.iq.issued_per_cycle::mean     1.750987                       # Number of insts issued each cycle
system.switch_cpus1.iq.issued_per_cycle::stdev     1.886699                       # Number of insts issued each cycle
system.switch_cpus1.iq.issued_per_cycle::underflows            0      0.00%      0.00% # Number of insts issued each cycle
system.switch_cpus1.iq.issued_per_cycle::0      2727140     35.11%     35.11% # Number of insts issued each cycle
system.switch_cpus1.iq.issued_per_cycle::1      1666265     21.45%     56.56% # Number of insts issued each cycle
system.switch_cpus1.iq.issued_per_cycle::2      1084591     13.96%     70.52% # Number of insts issued each cycle
system.switch_cpus1.iq.issued_per_cycle::3       805854     10.37%     80.90% # Number of insts issued each cycle
system.switch_cpus1.iq.issued_per_cycle::4       692712      8.92%     89.82% # Number of insts issued each cycle
system.switch_cpus1.iq.issued_per_cycle::5       358336      4.61%     94.43% # Number of insts issued each cycle
system.switch_cpus1.iq.issued_per_cycle::6       309577      3.99%     98.41% # Number of insts issued each cycle
system.switch_cpus1.iq.issued_per_cycle::7        57632      0.74%     99.16% # Number of insts issued each cycle
system.switch_cpus1.iq.issued_per_cycle::8        65589      0.84%    100.00% # Number of insts issued each cycle
system.switch_cpus1.iq.issued_per_cycle::overflows            0      0.00%    100.00% # Number of insts issued each cycle
system.switch_cpus1.iq.issued_per_cycle::min_value            0                       # Number of insts issued each cycle
system.switch_cpus1.iq.issued_per_cycle::max_value            8                       # Number of insts issued each cycle
system.switch_cpus1.iq.issued_per_cycle::total      7767696                       # Number of insts issued each cycle
system.switch_cpus1.iq.fu_full::No_OpClass            0      0.00%      0.00% # attempts to use FU when none available
system.switch_cpus1.iq.fu_full::IntAlu          79542     70.96%     70.96% # attempts to use FU when none available
system.switch_cpus1.iq.fu_full::IntMult             0      0.00%     70.96% # attempts to use FU when none available
system.switch_cpus1.iq.fu_full::IntDiv              0      0.00%     70.96% # attempts to use FU when none available
system.switch_cpus1.iq.fu_full::FloatAdd            0      0.00%     70.96% # attempts to use FU when none available
system.switch_cpus1.iq.fu_full::FloatCmp            0      0.00%     70.96% # attempts to use FU when none available
system.switch_cpus1.iq.fu_full::FloatCvt            0      0.00%     70.96% # attempts to use FU when none available
system.switch_cpus1.iq.fu_full::FloatMult            0      0.00%     70.96% # attempts to use FU when none available
system.switch_cpus1.iq.fu_full::FloatDiv            0      0.00%     70.96% # attempts to use FU when none available
system.switch_cpus1.iq.fu_full::FloatSqrt            0      0.00%     70.96% # attempts to use FU when none available
system.switch_cpus1.iq.fu_full::SimdAdd             0      0.00%     70.96% # attempts to use FU when none available
system.switch_cpus1.iq.fu_full::SimdAddAcc            0      0.00%     70.96% # attempts to use FU when none available
system.switch_cpus1.iq.fu_full::SimdAlu             0      0.00%     70.96% # attempts to use FU when none available
system.switch_cpus1.iq.fu_full::SimdCmp             0      0.00%     70.96% # attempts to use FU when none available
system.switch_cpus1.iq.fu_full::SimdCvt             0      0.00%     70.96% # attempts to use FU when none available
system.switch_cpus1.iq.fu_full::SimdMisc            0      0.00%     70.96% # attempts to use FU when none available
system.switch_cpus1.iq.fu_full::SimdMult            0      0.00%     70.96% # attempts to use FU when none available
system.switch_cpus1.iq.fu_full::SimdMultAcc            0      0.00%     70.96% # attempts to use FU when none available
system.switch_cpus1.iq.fu_full::SimdShift            0      0.00%     70.96% # attempts to use FU when none available
system.switch_cpus1.iq.fu_full::SimdShiftAcc            0      0.00%     70.96% # attempts to use FU when none available
system.switch_cpus1.iq.fu_full::SimdSqrt            0      0.00%     70.96% # attempts to use FU when none available
system.switch_cpus1.iq.fu_full::SimdFloatAdd            0      0.00%     70.96% # attempts to use FU when none available
system.switch_cpus1.iq.fu_full::SimdFloatAlu            0      0.00%     70.96% # attempts to use FU when none available
system.switch_cpus1.iq.fu_full::SimdFloatCmp            0      0.00%     70.96% # attempts to use FU when none available
system.switch_cpus1.iq.fu_full::SimdFloatCvt            0      0.00%     70.96% # attempts to use FU when none available
system.switch_cpus1.iq.fu_full::SimdFloatDiv            0      0.00%     70.96% # attempts to use FU when none available
system.switch_cpus1.iq.fu_full::SimdFloatMisc            0      0.00%     70.96% # attempts to use FU when none available
system.switch_cpus1.iq.fu_full::SimdFloatMult            0      0.00%     70.96% # attempts to use FU when none available
system.switch_cpus1.iq.fu_full::SimdFloatMultAcc            0      0.00%     70.96% # attempts to use FU when none available
system.switch_cpus1.iq.fu_full::SimdFloatSqrt            0      0.00%     70.96% # attempts to use FU when none available
system.switch_cpus1.iq.fu_full::MemRead         16287     14.53%     85.49% # attempts to use FU when none available
system.switch_cpus1.iq.fu_full::MemWrite        16266     14.51%    100.00% # attempts to use FU when none available
system.switch_cpus1.iq.fu_full::IprAccess            0      0.00%    100.00% # attempts to use FU when none available
system.switch_cpus1.iq.fu_full::InstPrefetch            0      0.00%    100.00% # attempts to use FU when none available
system.switch_cpus1.iq.FU_type_0::No_OpClass            0      0.00%      0.00% # Type of FU issued
system.switch_cpus1.iq.FU_type_0::IntAlu     11331752     83.31%     83.31% # Type of FU issued
system.switch_cpus1.iq.FU_type_0::IntMult       192995      1.42%     84.73% # Type of FU issued
system.switch_cpus1.iq.FU_type_0::IntDiv            0      0.00%     84.73% # Type of FU issued
system.switch_cpus1.iq.FU_type_0::FloatAdd            0      0.00%     84.73% # Type of FU issued
system.switch_cpus1.iq.FU_type_0::FloatCmp            0      0.00%     84.73% # Type of FU issued
system.switch_cpus1.iq.FU_type_0::FloatCvt            0      0.00%     84.73% # Type of FU issued
system.switch_cpus1.iq.FU_type_0::FloatMult            0      0.00%     84.73% # Type of FU issued
system.switch_cpus1.iq.FU_type_0::FloatDiv            0      0.00%     84.73% # Type of FU issued
system.switch_cpus1.iq.FU_type_0::FloatSqrt            0      0.00%     84.73% # Type of FU issued
system.switch_cpus1.iq.FU_type_0::SimdAdd            0      0.00%     84.73% # Type of FU issued
system.switch_cpus1.iq.FU_type_0::SimdAddAcc            0      0.00%     84.73% # Type of FU issued
system.switch_cpus1.iq.FU_type_0::SimdAlu            0      0.00%     84.73% # Type of FU issued
system.switch_cpus1.iq.FU_type_0::SimdCmp            0      0.00%     84.73% # Type of FU issued
system.switch_cpus1.iq.FU_type_0::SimdCvt            0      0.00%     84.73% # Type of FU issued
system.switch_cpus1.iq.FU_type_0::SimdMisc            0      0.00%     84.73% # Type of FU issued
system.switch_cpus1.iq.FU_type_0::SimdMult            0      0.00%     84.73% # Type of FU issued
system.switch_cpus1.iq.FU_type_0::SimdMultAcc            0      0.00%     84.73% # Type of FU issued
system.switch_cpus1.iq.FU_type_0::SimdShift            0      0.00%     84.73% # Type of FU issued
system.switch_cpus1.iq.FU_type_0::SimdShiftAcc            0      0.00%     84.73% # Type of FU issued
system.switch_cpus1.iq.FU_type_0::SimdSqrt            0      0.00%     84.73% # Type of FU issued
system.switch_cpus1.iq.FU_type_0::SimdFloatAdd            0      0.00%     84.73% # Type of FU issued
system.switch_cpus1.iq.FU_type_0::SimdFloatAlu            0      0.00%     84.73% # Type of FU issued
system.switch_cpus1.iq.FU_type_0::SimdFloatCmp            0      0.00%     84.73% # Type of FU issued
system.switch_cpus1.iq.FU_type_0::SimdFloatCvt            0      0.00%     84.73% # Type of FU issued
system.switch_cpus1.iq.FU_type_0::SimdFloatDiv            0      0.00%     84.73% # Type of FU issued
system.switch_cpus1.iq.FU_type_0::SimdFloatMisc         1505      0.01%     84.74% # Type of FU issued
system.switch_cpus1.iq.FU_type_0::SimdFloatMult            0      0.00%     84.74% # Type of FU issued
system.switch_cpus1.iq.FU_type_0::SimdFloatMultAcc            0      0.00%     84.74% # Type of FU issued
system.switch_cpus1.iq.FU_type_0::SimdFloatSqrt            0      0.00%     84.74% # Type of FU issued
system.switch_cpus1.iq.FU_type_0::MemRead      1350993      9.93%     94.68% # Type of FU issued
system.switch_cpus1.iq.FU_type_0::MemWrite       723890      5.32%    100.00% # Type of FU issued
system.switch_cpus1.iq.FU_type_0::IprAccess            0      0.00%    100.00% # Type of FU issued
system.switch_cpus1.iq.FU_type_0::InstPrefetch            0      0.00%    100.00% # Type of FU issued
system.switch_cpus1.iq.FU_type_0::total      13601135                       # Type of FU issued
system.switch_cpus1.iq.rate                  1.704157                       # Inst issue rate
system.switch_cpus1.iq.fu_busy_cnt             112095                       # FU busy when requested
system.switch_cpus1.iq.fu_busy_rate          0.008242                       # FU busy rate (busy events/executed inst)
system.switch_cpus1.iq.int_inst_queue_reads     35109649                       # Number of integer instruction queue reads
system.switch_cpus1.iq.int_inst_queue_writes     23085874                       # Number of integer instruction queue writes
system.switch_cpus1.iq.int_inst_queue_wakeup_accesses     13252545                       # Number of integer instruction queue wakeup accesses
system.switch_cpus1.iq.fp_inst_queue_reads            0                       # Number of floating instruction queue reads
system.switch_cpus1.iq.fp_inst_queue_writes            0                       # Number of floating instruction queue writes
system.switch_cpus1.iq.fp_inst_queue_wakeup_accesses            0                       # Number of floating instruction queue wakeup accesses
system.switch_cpus1.iq.int_alu_accesses      13713230                       # Number of integer alu accesses
system.switch_cpus1.iq.fp_alu_accesses              0                       # Number of floating point alu accesses
system.switch_cpus1.iew.lsq.thread0.forwLoads        50729                       # Number of loads that had data forwarded from stores
system.switch_cpus1.iew.lsq.thread0.invAddrLoads            0                       # Number of loads ignored due to an invalid address
system.switch_cpus1.iew.lsq.thread0.squashedLoads       670724                       # Number of loads squashed
system.switch_cpus1.iew.lsq.thread0.ignoredResponses          249                       # Number of memory responses ignored because the instruction is squashed
system.switch_cpus1.iew.lsq.thread0.memOrderViolation           68                       # Number of memory ordering violations
system.switch_cpus1.iew.lsq.thread0.squashedStores       222149                       # Number of stores squashed
system.switch_cpus1.iew.lsq.thread0.invAddrSwpfs            0                       # Number of software prefetches ignored due to an invalid address
system.switch_cpus1.iew.lsq.thread0.blockedLoads            0                       # Number of blocked loads due to partial load-store forwarding
system.switch_cpus1.iew.lsq.thread0.rescheduledLoads            0                       # Number of loads that were rescheduled
system.switch_cpus1.iew.lsq.thread0.cacheBlocked            0                       # Number of times an access to memory failed due to the cache being blocked
system.switch_cpus1.iew.iewIdleCycles               0                       # Number of cycles IEW is idle
system.switch_cpus1.iew.iewSquashCycles        839362                       # Number of cycles IEW is squashing
system.switch_cpus1.iew.iewBlockCycles          59755                       # Number of cycles IEW is blocking
system.switch_cpus1.iew.iewUnblockCycles         7759                       # Number of cycles IEW is unblocking
system.switch_cpus1.iew.iewDispatchedInsts     17145490                       # Number of instructions dispatched to IQ
system.switch_cpus1.iew.iewDispSquashedInsts        42782                       # Number of squashed instructions skipped by dispatch
system.switch_cpus1.iew.iewDispLoadInsts      1693012                       # Number of dispatched load instructions
system.switch_cpus1.iew.iewDispStoreInsts       861432                       # Number of dispatched store instructions
system.switch_cpus1.iew.iewDispNonSpecInsts         2112                       # Number of dispatched non-speculative instructions
system.switch_cpus1.iew.iewIQFullEvents          6907                       # Number of times the IQ has become full, causing a stall
system.switch_cpus1.iew.iewLSQFullEvents            0                       # Number of times the LSQ has become full, causing a stall
system.switch_cpus1.iew.memOrderViolationEvents           68                       # Number of memory order violations
system.switch_cpus1.iew.predictedTakenIncorrect       115220                       # Number of branches that were predicted taken incorrectly
system.switch_cpus1.iew.predictedNotTakenIncorrect       110650                       # Number of branches that were predicted not taken incorrectly
system.switch_cpus1.iew.branchMispredicts       225870                       # Number of branch mispredicts detected at execute
system.switch_cpus1.iew.iewExecutedInsts     13384627                       # Number of executed instructions
system.switch_cpus1.iew.iewExecLoadInsts      1267927                       # Number of load instructions executed
system.switch_cpus1.iew.iewExecSquashedInsts       216506                       # Number of squashed instructions skipped in execute
system.switch_cpus1.iew.exec_swp                    0                       # number of swp insts executed
system.switch_cpus1.iew.exec_nop                    1                       # number of nop insts executed
system.switch_cpus1.iew.exec_refs             1972832                       # number of memory reference insts executed
system.switch_cpus1.iew.exec_branches         1888926                       # Number of branches executed
system.switch_cpus1.iew.exec_stores            704905                       # Number of stores executed
system.switch_cpus1.iew.exec_rate            1.677029                       # Inst execution rate
system.switch_cpus1.iew.wb_sent              13261575                       # cumulative count of insts sent to commit
system.switch_cpus1.iew.wb_count             13252545                       # cumulative count of insts written-back
system.switch_cpus1.iew.wb_producers          8632983                       # num instructions producing a value
system.switch_cpus1.iew.wb_consumers         24371624                       # num instructions consuming a value
system.switch_cpus1.iew.wb_penalized                0                       # number of instrctions required to write to 'other' IQ
system.switch_cpus1.iew.wb_rate              1.660480                       # insts written-back per cycle
system.switch_cpus1.iew.wb_fanout            0.354223                       # average fanout of values written-back
system.switch_cpus1.iew.wb_penalized_rate            0                       # fraction of instructions written-back that wrote to 'other' IQ
system.switch_cpus1.commit.commitCommittedInsts      9099471                       # The number of committed instructions
system.switch_cpus1.commit.commitCommittedOps     11175005                       # The number of committed instructions
system.switch_cpus1.commit.commitSquashedInsts      5970595                       # The number of squashed insts skipped by commit
system.switch_cpus1.commit.commitNonSpecStalls         3012                       # The number of times commit has been forced to stall to communicate backwards
system.switch_cpus1.commit.branchMispredicts       195016                       # The number of times a branch was mispredicted
[...]
system.cpu3.icache.overall_accesses::switch_cpus3.inst      1553256                       # number of overall (read+write) accesses
system.cpu3.icache.overall_accesses::total      1553256                       # number of overall (read+write) accesses
system.cpu3.icache.ReadReq_miss_rate::switch_cpus3.inst     0.000013                       # miss rate for ReadReq accesses
system.cpu3.icache.ReadReq_miss_rate::total     0.000013                       # miss rate for ReadReq accesses
system.cpu3.icache.demand_miss_rate::switch_cpus3.inst     0.000013                       # miss rate for demand accesses
system.cpu3.icache.demand_miss_rate::total     0.000013                       # miss rate for demand accesses
system.cpu3.icache.overall_miss_rate::switch_cpus3.inst     0.000013                       # miss rate for overall accesses
system.cpu3.icache.overall_miss_rate::total     0.000013                       # miss rate for overall accesses
system.cpu3.icache.ReadReq_avg_miss_latency::switch_cpus3.inst 63010.600000                       # average ReadReq miss latency
system.cpu3.icache.ReadReq_avg_miss_latency::total 63010.600000                       # average ReadReq miss latency
system.cpu3.icache.demand_avg_miss_latency::switch_cpus3.inst 63010.600000                       # average overall miss latency
system.cpu3.icache.demand_avg_miss_latency::total 63010.600000                       # average overall miss latency
system.cpu3.icache.overall_avg_miss_latency::switch_cpus3.inst 63010.600000                       # average overall miss latency
system.cpu3.icache.overall_avg_miss_latency::total 63010.600000                       # average overall miss latency
system.cpu3.icache.blocked_cycles::no_mshrs            0                       # number of cycles access was blocked
system.cpu3.icache.blocked_cycles::no_targets            0                       # number of cycles access was blocked
system.cpu3.icache.blocked::no_mshrs                0                       # number of cycles access was blocked
system.cpu3.icache.blocked::no_targets              0                       # number of cycles access was blocked
system.cpu3.icache.avg_blocked_cycles::no_mshrs          nan                       # average number of cycles each access was blocked
system.cpu3.icache.avg_blocked_cycles::no_targets          nan                       # average number of cycles each access was blocked
system.cpu3.icache.fast_writes                      0                       # number of fast writes performed
system.cpu3.icache.cache_copies                     0                       # number of cache copies performed
system.cpu3.icache.ReadReq_mshr_hits::switch_cpus3.inst            7                       # number of ReadReq MSHR hits
system.cpu3.icache.ReadReq_mshr_hits::total            7                       # number of ReadReq MSHR hits
system.cpu3.icache.demand_mshr_hits::switch_cpus3.inst            7                       # number of demand (read+write) MSHR hits
system.cpu3.icache.demand_mshr_hits::total            7                       # number of demand (read+write) MSHR hits
system.cpu3.icache.overall_mshr_hits::switch_cpus3.inst            7                       # number of overall MSHR hits
system.cpu3.icache.overall_mshr_hits::total            7                       # number of overall MSHR hits
system.cpu3.icache.ReadReq_mshr_misses::switch_cpus3.inst           13                       # number of ReadReq MSHR misses
system.cpu3.icache.ReadReq_mshr_misses::total           13                       # number of ReadReq MSHR misses
system.cpu3.icache.demand_mshr_misses::switch_cpus3.inst           13                       # number of demand (read+write) MSHR misses
system.cpu3.icache.demand_mshr_misses::total           13                       # number of demand (read+write) MSHR misses
system.cpu3.icache.overall_mshr_misses::switch_cpus3.inst           13                       # number of overall MSHR misses
system.cpu3.icache.overall_mshr_misses::total           13                       # number of overall MSHR misses
system.cpu3.icache.ReadReq_mshr_miss_latency::switch_cpus3.inst       865591                       # number of ReadReq MSHR miss cycles
system.cpu3.icache.ReadReq_mshr_miss_latency::total       865591                       # number of ReadReq MSHR miss cycles
system.cpu3.icache.demand_mshr_miss_latency::switch_cpus3.inst       865591                       # number of demand (read+write) MSHR miss cycles
system.cpu3.icache.demand_mshr_miss_latency::total       865591                       # number of demand (read+write) MSHR miss cycles
system.cpu3.icache.overall_mshr_miss_latency::switch_cpus3.inst       865591                       # number of overall MSHR miss cycles
system.cpu3.icache.overall_mshr_miss_latency::total       865591                       # number of overall MSHR miss cycles
system.cpu3.icache.ReadReq_mshr_miss_rate::switch_cpus3.inst     0.000008                       # mshr miss rate for ReadReq accesses
system.cpu3.icache.ReadReq_mshr_miss_rate::total     0.000008                       # mshr miss rate for ReadReq accesses
system.cpu3.icache.demand_mshr_miss_rate::switch_cpus3.inst     0.000008                       # mshr miss rate for demand accesses
system.cpu3.icache.demand_mshr_miss_rate::total     0.000008                       # mshr miss rate for demand accesses
system.cpu3.icache.overall_mshr_miss_rate::switch_cpus3.inst     0.000008                       # mshr miss rate for overall accesses
system.cpu3.icache.overall_mshr_miss_rate::total     0.000008                       # mshr miss rate for overall accesses
system.cpu3.icache.ReadReq_avg_mshr_miss_latency::switch_cpus3.inst 66583.923077                       # average ReadReq mshr miss latency
system.cpu3.icache.ReadReq_avg_mshr_miss_latency::total 66583.923077                       # average ReadReq mshr miss latency
system.cpu3.icache.demand_avg_mshr_miss_latency::switch_cpus3.inst 66583.923077                       # average overall mshr miss latency
system.cpu3.icache.demand_avg_mshr_miss_latency::total 66583.923077                       # average overall mshr miss latency
system.cpu3.icache.overall_avg_mshr_miss_latency::switch_cpus3.inst 66583.923077                       # average overall mshr miss latency
system.cpu3.icache.overall_avg_mshr_miss_latency::total 66583.923077                       # average overall mshr miss latency
system.cpu3.icache.no_allocate_misses               0                       # Number of misses that were no-allocate
system.cpu3.dcache.replacements                  4824                       # number of replacements
system.cpu3.dcache.tagsinuse                      256                       # Cycle average of tags in use
system.cpu3.dcache.total_refs               170710246                       # Total number of references to valid blocks.
system.cpu3.dcache.sampled_refs                  5080                       # Sample count of references to valid blocks.
system.cpu3.dcache.avg_refs              33604.379134                       # Average number of references to valid blocks.
system.cpu3.dcache.warmup_cycle                     0                       # Cycle when the warmup percentage was hit.
system.cpu3.dcache.occ_blocks::switch_cpus3.data   226.342807                       # Average occupied blocks per requestor
system.cpu3.dcache.occ_blocks::cpu3.data    29.657193                       # Average occupied blocks per requestor
system.cpu3.dcache.occ_percent::switch_cpus3.data     0.884152                       # Average percentage of cache occupancy
system.cpu3.dcache.occ_percent::cpu3.data     0.115848                       # Average percentage of cache occupancy
system.cpu3.dcache.occ_percent::total               1                       # Average percentage of cache occupancy
system.cpu3.dcache.ReadReq_hits::switch_cpus3.data       962245                       # number of ReadReq hits
system.cpu3.dcache.ReadReq_hits::total         962245                       # number of ReadReq hits
system.cpu3.dcache.WriteReq_hits::switch_cpus3.data       663653                       # number of WriteReq hits
system.cpu3.dcache.WriteReq_hits::total        663653                       # number of WriteReq hits
system.cpu3.dcache.LoadLockedReq_hits::switch_cpus3.data         1629                       # number of LoadLockedReq hits
system.cpu3.dcache.LoadLockedReq_hits::total         1629                       # number of LoadLockedReq hits
system.cpu3.dcache.StoreCondReq_hits::switch_cpus3.data         1540                       # number of StoreCondReq hits
system.cpu3.dcache.StoreCondReq_hits::total         1540                       # number of StoreCondReq hits
system.cpu3.dcache.demand_hits::switch_cpus3.data      1625898                       # number of demand (read+write) hits
system.cpu3.dcache.demand_hits::total         1625898                       # number of demand (read+write) hits
system.cpu3.dcache.overall_hits::switch_cpus3.data      1625898                       # number of overall hits
system.cpu3.dcache.overall_hits::total        1625898                       # number of overall hits
system.cpu3.dcache.ReadReq_misses::switch_cpus3.data        12422                       # number of ReadReq misses
system.cpu3.dcache.ReadReq_misses::total        12422                       # number of ReadReq misses
system.cpu3.dcache.WriteReq_misses::switch_cpus3.data          237                       # number of WriteReq misses
system.cpu3.dcache.WriteReq_misses::total          237                       # number of WriteReq misses
system.cpu3.dcache.demand_misses::switch_cpus3.data        12659                       # number of demand (read+write) misses
system.cpu3.dcache.demand_misses::total         12659                       # number of demand (read+write) misses
system.cpu3.dcache.overall_misses::switch_cpus3.data        12659                       # number of overall misses
system.cpu3.dcache.overall_misses::total        12659                       # number of overall misses
system.cpu3.dcache.ReadReq_miss_latency::switch_cpus3.data    551821660                       # number of ReadReq miss cycles
system.cpu3.dcache.ReadReq_miss_latency::total    551821660                       # number of ReadReq miss cycles
system.cpu3.dcache.WriteReq_miss_latency::switch_cpus3.data     13627352                       # number of WriteReq miss cycles
system.cpu3.dcache.WriteReq_miss_latency::total     13627352                       # number of WriteReq miss cycles
system.cpu3.dcache.demand_miss_latency::switch_cpus3.data    565449012                       # number of demand (read+write) miss cycles
system.cpu3.dcache.demand_miss_latency::total    565449012                       # number of demand (read+write) miss cycles
system.cpu3.dcache.overall_miss_latency::switch_cpus3.data    565449012                       # number of overall miss cycles
system.cpu3.dcache.overall_miss_latency::total    565449012                       # number of overall miss cycles
system.cpu3.dcache.ReadReq_accesses::switch_cpus3.data       974667                       # number of ReadReq accesses(hits+misses)
system.cpu3.dcache.ReadReq_accesses::total       974667                       # number of ReadReq accesses(hits+misses)
system.cpu3.dcache.WriteReq_accesses::switch_cpus3.data       663890                       # number of WriteReq accesses(hits+misses)
system.cpu3.dcache.WriteReq_accesses::total       663890                       # number of WriteReq accesses(hits+misses)
system.cpu3.dcache.LoadLockedReq_accesses::switch_cpus3.data         1629                       # number of LoadLockedReq accesses(hits+misses)
system.cpu3.dcache.LoadLockedReq_accesses::total         1629                       # number of LoadLockedReq accesses(hits+misses)
system.cpu3.dcache.StoreCondReq_accesses::switch_cpus3.data         1540                       # number of StoreCondReq accesses(hits+misses)
system.cpu3.dcache.StoreCondReq_accesses::total         1540                       # number of StoreCondReq accesses(hits+misses)
system.cpu3.dcache.demand_accesses::switch_cpus3.data      1638557                       # number of demand (read+write) accesses
system.cpu3.dcache.demand_accesses::total      1638557                       # number of demand (read+write) accesses
system.cpu3.dcache.overall_accesses::switch_cpus3.data      1638557                       # number of overall (read+write) accesses
system.cpu3.dcache.overall_accesses::total      1638557                       # number of overall (read+write) accesses
system.cpu3.dcache.ReadReq_miss_rate::switch_cpus3.data     0.012745                       # miss rate for ReadReq accesses
system.cpu3.dcache.ReadReq_miss_rate::total     0.012745                       # miss rate for ReadReq accesses
system.cpu3.dcache.WriteReq_miss_rate::switch_cpus3.data     0.000357                       # miss rate for WriteReq accesses
system.cpu3.dcache.WriteReq_miss_rate::total     0.000357                       # miss rate for WriteReq accesses
system.cpu3.dcache.demand_miss_rate::switch_cpus3.data     0.007726                       # miss rate for demand accesses
system.cpu3.dcache.demand_miss_rate::total     0.007726                       # miss rate for demand accesses
system.cpu3.dcache.overall_miss_rate::switch_cpus3.data     0.007726                       # miss rate for overall accesses
system.cpu3.dcache.overall_miss_rate::total     0.007726                       # miss rate for overall accesses
system.cpu3.dcache.ReadReq_avg_miss_latency::switch_cpus3.data 44422.931895                       # average ReadReq miss latency
system.cpu3.dcache.ReadReq_avg_miss_latency::total 44422.931895                       # average ReadReq miss latency
system.cpu3.dcache.WriteReq_avg_miss_latency::switch_cpus3.data 57499.375527                       # average WriteReq miss latency
system.cpu3.dcache.WriteReq_avg_miss_latency::total 57499.375527                       # average WriteReq miss latency
system.cpu3.dcache.demand_avg_miss_latency::switch_cpus3.data 44667.747215                       # average overall miss latency
system.cpu3.dcache.demand_avg_miss_latency::total 44667.747215                       # average overall miss latency
system.cpu3.dcache.overall_avg_miss_latency::switch_cpus3.data 44667.747215                       # average overall miss latency
system.cpu3.dcache.overall_avg_miss_latency::total 44667.747215                       # average overall miss latency
system.cpu3.dcache.blocked_cycles::no_mshrs            0                       # number of cycles access was blocked
system.cpu3.dcache.blocked_cycles::no_targets        59439                       # number of cycles access was blocked
system.cpu3.dcache.blocked::no_mshrs                0                       # number of cycles access was blocked
system.cpu3.dcache.blocked::no_targets              1                       # number of cycles access was blocked
system.cpu3.dcache.avg_blocked_cycles::no_mshrs          nan                       # average number of cycles each access was blocked
system.cpu3.dcache.avg_blocked_cycles::no_targets        59439                       # average number of cycles each access was blocked
system.cpu3.dcache.fast_writes                      0                       # number of fast writes performed
system.cpu3.dcache.cache_copies                     0                       # number of cache copies performed
system.cpu3.dcache.writebacks::writebacks         1748                       # number of writebacks
system.cpu3.dcache.writebacks::total             1748                       # number of writebacks
system.cpu3.dcache.ReadReq_mshr_hits::switch_cpus3.data         7598                       # number of ReadReq MSHR hits
system.cpu3.dcache.ReadReq_mshr_hits::total         7598                       # number of ReadReq MSHR hits
system.cpu3.dcache.WriteReq_mshr_hits::switch_cpus3.data          237                       # number of WriteReq MSHR hits
system.cpu3.dcache.WriteReq_mshr_hits::total          237                       # number of WriteReq MSHR hits
system.cpu3.dcache.demand_mshr_hits::switch_cpus3.data         7835                       # number of demand (read+write) MSHR hits
system.cpu3.dcache.demand_mshr_hits::total         7835                       # number of demand (read+write) MSHR hits
system.cpu3.dcache.overall_mshr_hits::switch_cpus3.data         7835                       # number of overall MSHR hits
system.cpu3.dcache.overall_mshr_hits::total         7835                       # number of overall MSHR hits
system.cpu3.dcache.ReadReq_mshr_misses::switch_cpus3.data         4824                       # number of ReadReq MSHR misses
system.cpu3.dcache.ReadReq_mshr_misses::total         4824                       # number of ReadReq MSHR misses
system.cpu3.dcache.demand_mshr_misses::switch_cpus3.data         4824                       # number of demand (read+write) MSHR misses
system.cpu3.dcache.demand_mshr_misses::total         4824                       # number of demand (read+write) MSHR misses
system.cpu3.dcache.overall_mshr_misses::switch_cpus3.data         4824                       # number of overall MSHR misses
system.cpu3.dcache.overall_mshr_misses::total         4824                       # number of overall MSHR misses
system.cpu3.dcache.ReadReq_mshr_miss_latency::switch_cpus3.data    130178069                       # number of ReadReq MSHR miss cycles
system.cpu3.dcache.ReadReq_mshr_miss_latency::total    130178069                       # number of ReadReq MSHR miss cycles
system.cpu3.dcache.demand_mshr_miss_latency::switch_cpus3.data    130178069                       # number of demand (read+write) MSHR miss cycles
system.cpu3.dcache.demand_mshr_miss_latency::total    130178069                       # number of demand (read+write) MSHR miss cycles
system.cpu3.dcache.overall_mshr_miss_latency::switch_cpus3.data    130178069                       # number of overall MSHR miss cycles
system.cpu3.dcache.overall_mshr_miss_latency::total    130178069                       # number of overall MSHR miss cycles
system.cpu3.dcache.ReadReq_mshr_miss_rate::switch_cpus3.data     0.004949                       # mshr miss rate for ReadReq accesses
system.cpu3.dcache.ReadReq_mshr_miss_rate::total     0.004949                       # mshr miss rate for ReadReq accesses
system.cpu3.dcache.demand_mshr_miss_rate::switch_cpus3.data     0.002944                       # mshr miss rate for demand accesses
system.cpu3.dcache.demand_mshr_miss_rate::total     0.002944                       # mshr miss rate for demand accesses
system.cpu3.dcache.overall_mshr_miss_rate::switch_cpus3.data     0.002944                       # mshr miss rate for overall accesses
system.cpu3.dcache.overall_mshr_miss_rate::total     0.002944                       # mshr miss rate for overall accesses
system.cpu3.dcache.ReadReq_avg_mshr_miss_latency::switch_cpus3.data 26985.503524                       # average ReadReq mshr miss latency
system.cpu3.dcache.ReadReq_avg_mshr_miss_latency::total 26985.503524                       # average ReadReq mshr miss latency
system.cpu3.dcache.demand_avg_mshr_miss_latency::switch_cpus3.data 26985.503524                       # average overall mshr miss latency
system.cpu3.dcache.demand_avg_mshr_miss_latency::total 26985.503524                       # average overall mshr miss latency
system.cpu3.dcache.overall_avg_mshr_miss_latency::switch_cpus3.data 26985.503524                       # average overall mshr miss latency
system.cpu3.dcache.overall_avg_mshr_miss_latency::total 26985.503524                       # average overall mshr miss latency
system.cpu3.dcache.no_allocate_misses               0                       # Number of misses that were no-allocate

---------- End Simulation Statistics   ----------
