
---------- Begin Simulation Statistics ----------
sim_seconds                                  0.010466                       # Number of seconds simulated
sim_ticks                                 10466306769                       # Number of ticks simulated
final_tick                               538241683314                       # Number of ticks from beginning of simulation (restored from checkpoints and never reset)
sim_freq                                 1000000000000                       # Frequency of simulated ticks
host_inst_rate                                 408544                       # Simulator instruction rate (inst/s)
host_op_rate                                   522600                       # Simulator op (including micro ops) rate (op/s)
host_tick_rate                                 267603                       # Simulator tick rate (ticks/s)
host_mem_usage                               67614344                       # Number of bytes of host memory used
host_seconds                                 39111.37                       # Real time elapsed on the host
sim_insts                                 15978710739                       # Number of instructions simulated
sim_ops                                   20439613261                       # Number of ops (including micro ops) simulated
system.physmem.bytes_read::switch_cpus00.inst         4864                       # Number of bytes read from this memory
system.physmem.bytes_read::switch_cpus00.data       182784                       # Number of bytes read from this memory
system.physmem.bytes_read::switch_cpus01.inst         4736                       # Number of bytes read from this memory
system.physmem.bytes_read::switch_cpus01.data       371072                       # Number of bytes read from this memory
system.physmem.bytes_read::switch_cpus02.inst         4352                       # Number of bytes read from this memory
system.physmem.bytes_read::switch_cpus02.data       264448                       # Number of bytes read from this memory
system.physmem.bytes_read::switch_cpus03.inst         4608                       # Number of bytes read from this memory
system.physmem.bytes_read::switch_cpus03.data       430592                       # Number of bytes read from this memory
system.physmem.bytes_read::switch_cpus04.inst         4480                       # Number of bytes read from this memory
system.physmem.bytes_read::switch_cpus04.data       249600                       # Number of bytes read from this memory
system.physmem.bytes_read::switch_cpus05.inst         4992                       # Number of bytes read from this memory
system.physmem.bytes_read::switch_cpus05.data       151552                       # Number of bytes read from this memory
system.physmem.bytes_read::switch_cpus06.inst         4608                       # Number of bytes read from this memory
system.physmem.bytes_read::switch_cpus06.data       362368                       # Number of bytes read from this memory
system.physmem.bytes_read::switch_cpus07.inst         4608                       # Number of bytes read from this memory
system.physmem.bytes_read::switch_cpus07.data       176896                       # Number of bytes read from this memory
system.physmem.bytes_read::switch_cpus08.inst         3584                       # Number of bytes read from this memory
system.physmem.bytes_read::switch_cpus08.data       251008                       # Number of bytes read from this memory
system.physmem.bytes_read::switch_cpus09.inst         4608                       # Number of bytes read from this memory
system.physmem.bytes_read::switch_cpus09.data       152704                       # Number of bytes read from this memory
system.physmem.bytes_read::switch_cpus10.inst         3840                       # Number of bytes read from this memory
system.physmem.bytes_read::switch_cpus10.data       256256                       # Number of bytes read from this memory
system.physmem.bytes_read::switch_cpus11.inst         3712                       # Number of bytes read from this memory
system.physmem.bytes_read::switch_cpus11.data       256384                       # Number of bytes read from this memory
system.physmem.bytes_read::switch_cpus12.inst         4352                       # Number of bytes read from this memory
system.physmem.bytes_read::switch_cpus12.data       262656                       # Number of bytes read from this memory
system.physmem.bytes_read::switch_cpus13.inst         4608                       # Number of bytes read from this memory
system.physmem.bytes_read::switch_cpus13.data       365568                       # Number of bytes read from this memory
system.physmem.bytes_read::switch_cpus14.inst         5120                       # Number of bytes read from this memory
system.physmem.bytes_read::switch_cpus14.data       185728                       # Number of bytes read from this memory
system.physmem.bytes_read::switch_cpus15.inst         4352                       # Number of bytes read from this memory
system.physmem.bytes_read::switch_cpus15.data       153344                       # Number of bytes read from this memory
system.physmem.bytes_read::total              4144384                       # Number of bytes read from this memory
system.physmem.bytes_inst_read::switch_cpus00.inst         4864                       # Number of instructions bytes read from this memory
system.physmem.bytes_inst_read::switch_cpus01.inst         4736                       # Number of instructions bytes read from this memory
system.physmem.bytes_inst_read::switch_cpus02.inst         4352                       # Number of instructions bytes read from this memory
system.physmem.bytes_inst_read::switch_cpus03.inst         4608                       # Number of instructions bytes read from this memory
system.physmem.bytes_inst_read::switch_cpus04.inst         4480                       # Number of instructions bytes read from this memory
system.physmem.bytes_inst_read::switch_cpus05.inst         4992                       # Number of instructions bytes read from this memory
system.physmem.bytes_inst_read::switch_cpus06.inst         4608                       # Number of instructions bytes read from this memory
system.physmem.bytes_inst_read::switch_cpus07.inst         4608                       # Number of instructions bytes read from this memory
system.physmem.bytes_inst_read::switch_cpus08.inst         3584                       # Number of instructions bytes read from this memory
system.physmem.bytes_inst_read::switch_cpus09.inst         4608                       # Number of instructions bytes read from this memory
system.physmem.bytes_inst_read::switch_cpus10.inst         3840                       # Number of instructions bytes read from this memory
system.physmem.bytes_inst_read::switch_cpus11.inst         3712                       # Number of instructions bytes read from this memory
system.physmem.bytes_inst_read::switch_cpus12.inst         4352                       # Number of instructions bytes read from this memory
system.physmem.bytes_inst_read::switch_cpus13.inst         4608                       # Number of instructions bytes read from this memory
system.physmem.bytes_inst_read::switch_cpus14.inst         5120                       # Number of instructions bytes read from this memory
system.physmem.bytes_inst_read::switch_cpus15.inst         4352                       # Number of instructions bytes read from this memory
system.physmem.bytes_inst_read::total           71424                       # Number of instructions bytes read from this memory
system.physmem.bytes_written::writebacks      1193600                       # Number of bytes written to this memory
system.physmem.bytes_written::total           1193600                       # Number of bytes written to this memory
system.physmem.num_reads::switch_cpus00.inst           38                       # Number of read requests responded to by this memory
system.physmem.num_reads::switch_cpus00.data         1428                       # Number of read requests responded to by this memory
system.physmem.num_reads::switch_cpus01.inst           37                       # Number of read requests responded to by this memory
system.physmem.num_reads::switch_cpus01.data         2899                       # Number of read requests responded to by this memory
system.physmem.num_reads::switch_cpus02.inst           34                       # Number of read requests responded to by this memory
system.physmem.num_reads::switch_cpus02.data         2066                       # Number of read requests responded to by this memory
system.physmem.num_reads::switch_cpus03.inst           36                       # Number of read requests responded to by this memory
system.physmem.num_reads::switch_cpus03.data         3364                       # Number of read requests responded to by this memory
system.physmem.num_reads::switch_cpus04.inst           35                       # Number of read requests responded to by this memory
system.physmem.num_reads::switch_cpus04.data         1950                       # Number of read requests responded to by this memory
system.physmem.num_reads::switch_cpus05.inst           39                       # Number of read requests responded to by this memory
system.physmem.num_reads::switch_cpus05.data         1184                       # Number of read requests responded to by this memory
system.physmem.num_reads::switch_cpus06.inst           36                       # Number of read requests responded to by this memory
system.physmem.num_reads::switch_cpus06.data         2831                       # Number of read requests responded to by this memory
system.physmem.num_reads::switch_cpus07.inst           36                       # Number of read requests responded to by this memory
system.physmem.num_reads::switch_cpus07.data         1382                       # Number of read requests responded to by this memory
system.physmem.num_reads::switch_cpus08.inst           28                       # Number of read requests responded to by this memory
system.physmem.num_reads::switch_cpus08.data         1961                       # Number of read requests responded to by this memory
system.physmem.num_reads::switch_cpus09.inst           36                       # Number of read requests responded to by this memory
system.physmem.num_reads::switch_cpus09.data         1193                       # Number of read requests responded to by this memory
system.physmem.num_reads::switch_cpus10.inst           30                       # Number of read requests responded to by this memory
system.physmem.num_reads::switch_cpus10.data         2002                       # Number of read requests responded to by this memory
system.physmem.num_reads::switch_cpus11.inst           29                       # Number of read requests responded to by this memory
system.physmem.num_reads::switch_cpus11.data         2003                       # Number of read requests responded to by this memory
system.physmem.num_reads::switch_cpus12.inst           34                       # Number of read requests responded to by this memory
system.physmem.num_reads::switch_cpus12.data         2052                       # Number of read requests responded to by this memory
system.physmem.num_reads::switch_cpus13.inst           36                       # Number of read requests responded to by this memory
system.physmem.num_reads::switch_cpus13.data         2856                       # Number of read requests responded to by this memory
system.physmem.num_reads::switch_cpus14.inst           40                       # Number of read requests responded to by this memory
system.physmem.num_reads::switch_cpus14.data         1451                       # Number of read requests responded to by this memory
system.physmem.num_reads::switch_cpus15.inst           34                       # Number of read requests responded to by this memory
system.physmem.num_reads::switch_cpus15.data         1198                       # Number of read requests responded to by this memory
system.physmem.num_reads::total                 32378                       # Number of read requests responded to by this memory
system.physmem.num_writes::writebacks            9325                       # Number of write requests responded to by this memory
system.physmem.num_writes::functional               0                       # Number of write requests responded to by this memory
system.physmem.num_writes::interrupt                0                       # Number of write requests responded to by this memory
system.physmem.num_writes::switch_cpus00.dtb.walker            0                       # Number of write requests responded to by this memory
system.physmem.num_writes::switch_cpus00.itb.walker            0                       # Number of write requests responded to by this memory
system.physmem.num_writes::switch_cpus00.inst            0                       # Number of write requests responded to by this memory
system.physmem.num_writes::switch_cpus00.data            0                       # Number of write requests responded to by this memory
system.physmem.num_writes::switch_cpus01.dtb.walker            0                       # Number of write requests responded to by this memory
system.physmem.num_writes::switch_cpus01.itb.walker            0                       # Number of write requests responded to by this memory
system.physmem.num_writes::switch_cpus01.inst            0                       # Number of write requests responded to by this memory
system.physmem.num_writes::switch_cpus01.data            0                       # Number of write requests responded to by this memory
system.physmem.num_writes::switch_cpus02.dtb.walker            0                       # Number of write requests responded to by this memory
system.physmem.num_writes::switch_cpus02.itb.walker            0                       # Number of write requests responded to by this memory
system.physmem.num_writes::switch_cpus02.inst            0                       # Number of write requests responded to by this memory
system.physmem.num_writes::switch_cpus02.data            0                       # Number of write requests responded to by this memory
system.physmem.num_writes::switch_cpus03.dtb.walker            0                       # Number of write requests responded to by this memory
system.physmem.num_writes::switch_cpus03.itb.walker            0                       # Number of write requests responded to by this memory
system.physmem.num_writes::switch_cpus03.inst            0                       # Number of write requests responded to by this memory
system.physmem.num_writes::switch_cpus03.data            0                       # Number of write requests responded to by this memory
system.physmem.num_writes::switch_cpus04.dtb.walker            0                       # Number of write requests responded to by this memory
system.physmem.num_writes::switch_cpus04.itb.walker            0                       # Number of write requests responded to by this memory
system.physmem.num_writes::switch_cpus04.inst            0                       # Number of write requests responded to by this memory
system.physmem.num_writes::switch_cpus04.data            0                       # Number of write requests responded to by this memory
system.physmem.num_writes::switch_cpus05.dtb.walker            0                       # Number of write requests responded to by this memory
system.physmem.num_writes::switch_cpus05.itb.walker            0                       # Number of write requests responded to by this memory
system.physmem.num_writes::switch_cpus05.inst            0                       # Number of write requests responded to by this memory
system.physmem.num_writes::switch_cpus05.data            0                       # Number of write requests responded to by this memory
system.physmem.num_writes::switch_cpus06.dtb.walker            0                       # Number of write requests responded to by this memory
system.physmem.num_writes::switch_cpus06.itb.walker            0                       # Number of write requests responded to by this memory
system.physmem.num_writes::switch_cpus06.inst            0                       # Number of write requests responded to by this memory
system.physmem.num_writes::switch_cpus06.data            0                       # Number of write requests responded to by this memory
system.physmem.num_writes::switch_cpus07.dtb.walker            0                       # Number of write requests responded to by this memory
system.physmem.num_writes::switch_cpus07.itb.walker            0                       # Number of write requests responded to by this memory
system.physmem.num_writes::switch_cpus07.inst            0                       # Number of write requests responded to by this memory
system.physmem.num_writes::switch_cpus07.data            0                       # Number of write requests responded to by this memory
system.physmem.num_writes::switch_cpus08.dtb.walker            0                       # Number of write requests responded to by this memory
system.physmem.num_writes::switch_cpus08.itb.walker            0                       # Number of write requests responded to by this memory
system.physmem.num_writes::switch_cpus08.inst            0                       # Number of write requests responded to by this memory
system.physmem.num_writes::switch_cpus08.data            0                       # Number of write requests responded to by this memory
system.physmem.num_writes::switch_cpus09.dtb.walker            0                       # Number of write requests responded to by this memory
system.physmem.num_writes::switch_cpus09.itb.walker            0                       # Number of write requests responded to by this memory
system.physmem.num_writes::switch_cpus09.inst            0                       # Number of write requests responded to by this memory
system.physmem.num_writes::switch_cpus09.data            0                       # Number of write requests responded to by this memory
system.physmem.num_writes::switch_cpus10.dtb.walker            0                       # Number of write requests responded to by this memory
system.physmem.num_writes::switch_cpus10.itb.walker            0                       # Number of write requests responded to by this memory
system.physmem.num_writes::switch_cpus10.inst            0                       # Number of write requests responded to by this memory
system.physmem.num_writes::switch_cpus10.data            0                       # Number of write requests responded to by this memory
system.physmem.num_writes::switch_cpus11.dtb.walker            0                       # Number of write requests responded to by this memory
system.physmem.num_writes::switch_cpus11.itb.walker            0                       # Number of write requests responded to by this memory
system.physmem.num_writes::switch_cpus11.inst            0                       # Number of write requests responded to by this memory
system.physmem.num_writes::switch_cpus11.data            0                       # Number of write requests responded to by this memory
system.physmem.num_writes::switch_cpus12.dtb.walker            0                       # Number of write requests responded to by this memory
system.physmem.num_writes::switch_cpus12.itb.walker            0                       # Number of write requests responded to by this memory
system.physmem.num_writes::switch_cpus12.inst            0                       # Number of write requests responded to by this memory
system.physmem.num_writes::switch_cpus12.data            0                       # Number of write requests responded to by this memory
system.physmem.num_writes::switch_cpus13.dtb.walker            0                       # Number of write requests responded to by this memory
system.physmem.num_writes::switch_cpus13.itb.walker            0                       # Number of write requests responded to by this memory
system.physmem.num_writes::switch_cpus13.inst            0                       # Number of write requests responded to by this memory
system.physmem.num_writes::switch_cpus13.data            0                       # Number of write requests responded to by this memory
system.physmem.num_writes::switch_cpus14.dtb.walker            0                       # Number of write requests responded to by this memory
system.physmem.num_writes::switch_cpus14.itb.walker            0                       # Number of write requests responded to by this memory
system.physmem.num_writes::switch_cpus14.inst            0                       # Number of write requests responded to by this memory
system.physmem.num_writes::switch_cpus14.data            0                       # Number of write requests responded to by this memory
system.physmem.num_writes::switch_cpus15.dtb.walker            0                       # Number of write requests responded to by this memory
system.physmem.num_writes::switch_cpus15.itb.walker            0                       # Number of write requests responded to by this memory
system.physmem.num_writes::switch_cpus15.inst            0                       # Number of write requests responded to by this memory
system.physmem.num_writes::switch_cpus15.data            0                       # Number of write requests responded to by this memory
system.physmem.num_writes::cpu00.dtb.walker            0                       # Number of write requests responded to by this memory
system.physmem.num_writes::cpu00.itb.walker            0                       # Number of write requests responded to by this memory
system.physmem.num_writes::cpu00.inst               0                       # Number of write requests responded to by this memory
system.physmem.num_writes::cpu00.data               0                       # Number of write requests responded to by this memory
system.physmem.num_writes::cpu01.dtb.walker            0                       # Number of write requests responded to by this memory
system.physmem.num_writes::cpu01.itb.walker            0                       # Number of write requests responded to by this memory
system.physmem.num_writes::cpu01.inst               0                       # Number of write requests responded to by this memory
system.physmem.num_writes::cpu01.data               0                       # Number of write requests responded to by this memory
system.physmem.num_writes::cpu02.dtb.walker            0                       # Number of write requests responded to by this memory
system.physmem.num_writes::cpu02.itb.walker            0                       # Number of write requests responded to by this memory
system.physmem.num_writes::cpu02.inst               0                       # Number of write requests responded to by this memory
system.physmem.num_writes::cpu02.data               0                       # Number of write requests responded to by this memory
system.physmem.num_writes::cpu03.dtb.walker            0                       # Number of write requests responded to by this memory
system.physmem.num_writes::cpu03.itb.walker            0                       # Number of write requests responded to by this memory
system.physmem.num_writes::cpu03.inst               0                       # Number of write requests responded to by this memory
system.physmem.num_writes::cpu03.data               0                       # Number of write requests responded to by this memory
system.physmem.num_writes::cpu04.dtb.walker            0                       # Number of write requests responded to by this memory
system.physmem.num_writes::cpu04.itb.walker            0                       # Number of write requests responded to by this memory
system.physmem.num_writes::cpu04.inst               0                       # Number of write requests responded to by this memory
system.physmem.num_writes::cpu04.data               0                       # Number of write requests responded to by this memory
system.physmem.num_writes::cpu05.dtb.walker            0                       # Number of write requests responded to by this memory
system.physmem.num_writes::cpu05.itb.walker            0                       # Number of write requests responded to by this memory
system.physmem.num_writes::cpu05.inst               0                       # Number of write requests responded to by this memory
system.physmem.num_writes::cpu05.data               0                       # Number of write requests responded to by this memory
system.physmem.num_writes::cpu06.dtb.walker            0                       # Number of write requests responded to by this memory
system.physmem.num_writes::cpu06.itb.walker            0                       # Number of write requests responded to by this memory
system.physmem.num_writes::cpu06.inst               0                       # Number of write requests responded to by this memory
system.physmem.num_writes::cpu06.data               0                       # Number of write requests responded to by this memory
system.physmem.num_writes::cpu07.dtb.walker            0                       # Number of write requests responded to by this memory
system.physmem.num_writes::cpu07.itb.walker            0                       # Number of write requests responded to by this memory
system.physmem.num_writes::cpu07.inst               0                       # Number of write requests responded to by this memory
system.physmem.num_writes::cpu07.data               0                       # Number of write requests responded to by this memory
system.physmem.num_writes::cpu08.dtb.walker            0                       # Number of write requests responded to by this memory
system.physmem.num_writes::cpu08.itb.walker            0                       # Number of write requests responded to by this memory
system.physmem.num_writes::cpu08.inst               0                       # Number of write requests responded to by this memory
system.physmem.num_writes::cpu08.data               0                       # Number of write requests responded to by this memory
system.physmem.num_writes::cpu09.dtb.walker            0                       # Number of write requests responded to by this memory
system.physmem.num_writes::cpu09.itb.walker            0                       # Number of write requests responded to by this memory
system.physmem.num_writes::cpu09.inst               0                       # Number of write requests responded to by this memory
system.physmem.num_writes::cpu09.data               0                       # Number of write requests responded to by this memory
system.physmem.num_writes::cpu10.dtb.walker            0                       # Number of write requests responded to by this memory
system.physmem.num_writes::cpu10.itb.walker            0                       # Number of write requests responded to by this memory
system.physmem.num_writes::cpu10.inst               0                       # Number of write requests responded to by this memory
system.physmem.num_writes::cpu10.data               0                       # Number of write requests responded to by this memory
system.physmem.num_writes::cpu11.dtb.walker            0                       # Number of write requests responded to by this memory
system.physmem.num_writes::cpu11.itb.walker            0                       # Number of write requests responded to by this memory
system.physmem.num_writes::cpu11.inst               0                       # Number of write requests responded to by this memory
system.physmem.num_writes::cpu11.data               0                       # Number of write requests responded to by this memory
system.physmem.num_writes::cpu12.dtb.walker            0                       # Number of write requests responded to by this memory
system.physmem.num_writes::cpu12.itb.walker            0                       # Number of write requests responded to by this memory
system.physmem.num_writes::cpu12.inst               0                       # Number of write requests responded to by this memory
system.physmem.num_writes::cpu12.data               0                       # Number of write requests responded to by this memory
system.physmem.num_writes::cpu13.dtb.walker            0                       # Number of write requests responded to by this memory
system.physmem.num_writes::cpu13.itb.walker            0                       # Number of write requests responded to by this memory
system.physmem.num_writes::cpu13.inst               0                       # Number of write requests responded to by this memory
system.physmem.num_writes::cpu13.data               0                       # Number of write requests responded to by this memory
system.physmem.num_writes::cpu14.dtb.walker            0                       # Number of write requests responded to by this memory
system.physmem.num_writes::cpu14.itb.walker            0                       # Number of write requests responded to by this memory
system.physmem.num_writes::cpu14.inst               0                       # Number of write requests responded to by this memory
system.physmem.num_writes::cpu14.data               0                       # Number of write requests responded to by this memory
system.physmem.num_writes::cpu15.dtb.walker            0                       # Number of write requests responded to by this memory
system.physmem.num_writes::cpu15.itb.walker            0                       # Number of write requests responded to by this memory
system.physmem.num_writes::cpu15.inst               0                       # Number of write requests responded to by this memory
system.physmem.num_writes::cpu15.data               0                       # Number of write requests responded to by this memory
system.physmem.num_writes::total                 9325                       # Number of write requests responded to by this memory
system.physmem.bw_read::switch_cpus00.inst       464729                       # Total read bandwidth from this memory (bytes/s)
system.physmem.bw_read::switch_cpus00.data     17464040                       # Total read bandwidth from this memory (bytes/s)
system.physmem.bw_read::switch_cpus01.inst       452500                       # Total read bandwidth from this memory (bytes/s)
system.physmem.bw_read::switch_cpus01.data     35453958                       # Total read bandwidth from this memory (bytes/s)
system.physmem.bw_read::switch_cpus02.inst       415810                       # Total read bandwidth from this memory (bytes/s)
system.physmem.bw_read::switch_cpus02.data     25266601                       # Total read bandwidth from this memory (bytes/s)
system.physmem.bw_read::switch_cpus03.inst       440270                       # Total read bandwidth from this memory (bytes/s)
system.physmem.bw_read::switch_cpus03.data     41140778                       # Total read bandwidth from this memory (bytes/s)
system.physmem.bw_read::switch_cpus04.inst       428040                       # Total read bandwidth from this memory (bytes/s)
system.physmem.bw_read::switch_cpus04.data     23847954                       # Total read bandwidth from this memory (bytes/s)
system.physmem.bw_read::switch_cpus05.inst       476959                       # Total read bandwidth from this memory (bytes/s)
system.physmem.bw_read::switch_cpus05.data     14479988                       # Total read bandwidth from this memory (bytes/s)
system.physmem.bw_read::switch_cpus06.inst       440270                       # Total read bandwidth from this memory (bytes/s)
system.physmem.bw_read::switch_cpus06.data     34622337                       # Total read bandwidth from this memory (bytes/s)
system.physmem.bw_read::switch_cpus07.inst       440270                       # Total read bandwidth from this memory (bytes/s)
system.physmem.bw_read::switch_cpus07.data     16901473                       # Total read bandwidth from this memory (bytes/s)
system.physmem.bw_read::switch_cpus08.inst       342432                       # Total read bandwidth from this memory (bytes/s)
system.physmem.bw_read::switch_cpus08.data     23982481                       # Total read bandwidth from this memory (bytes/s)
system.physmem.bw_read::switch_cpus09.inst       440270                       # Total read bandwidth from this memory (bytes/s)
system.physmem.bw_read::switch_cpus09.data     14590056                       # Total read bandwidth from this memory (bytes/s)
system.physmem.bw_read::switch_cpus10.inst       366892                       # Total read bandwidth from this memory (bytes/s)
system.physmem.bw_read::switch_cpus10.data     24483899                       # Total read bandwidth from this memory (bytes/s)
system.physmem.bw_read::switch_cpus11.inst       354662                       # Total read bandwidth from this memory (bytes/s)
system.physmem.bw_read::switch_cpus11.data     24496129                       # Total read bandwidth from this memory (bytes/s)
system.physmem.bw_read::switch_cpus12.inst       415810                       # Total read bandwidth from this memory (bytes/s)
system.physmem.bw_read::switch_cpus12.data     25095385                       # Total read bandwidth from this memory (bytes/s)
system.physmem.bw_read::switch_cpus13.inst       440270                       # Total read bandwidth from this memory (bytes/s)
system.physmem.bw_read::switch_cpus13.data     34928080                       # Total read bandwidth from this memory (bytes/s)
system.physmem.bw_read::switch_cpus14.inst       489189                       # Total read bandwidth from this memory (bytes/s)
system.physmem.bw_read::switch_cpus14.data     17745324                       # Total read bandwidth from this memory (bytes/s)
system.physmem.bw_read::switch_cpus15.inst       415810                       # Total read bandwidth from this memory (bytes/s)
system.physmem.bw_read::switch_cpus15.data     14651204                       # Total read bandwidth from this memory (bytes/s)
system.physmem.bw_read::total               395973870                       # Total read bandwidth from this memory (bytes/s)
system.physmem.bw_inst_read::switch_cpus00.inst       464729                       # Instruction read bandwidth from this memory (bytes/s)
system.physmem.bw_inst_read::switch_cpus01.inst       452500                       # Instruction read bandwidth from this memory (bytes/s)
system.physmem.bw_inst_read::switch_cpus02.inst       415810                       # Instruction read bandwidth from this memory (bytes/s)
system.physmem.bw_inst_read::switch_cpus03.inst       440270                       # Instruction read bandwidth from this memory (bytes/s)
system.physmem.bw_inst_read::switch_cpus04.inst       428040                       # Instruction read bandwidth from this memory (bytes/s)
system.physmem.bw_inst_read::switch_cpus05.inst       476959                       # Instruction read bandwidth from this memory (bytes/s)
system.physmem.bw_inst_read::switch_cpus06.inst       440270                       # Instruction read bandwidth from this memory (bytes/s)
system.physmem.bw_inst_read::switch_cpus07.inst       440270                       # Instruction read bandwidth from this memory (bytes/s)
system.physmem.bw_inst_read::switch_cpus08.inst       342432                       # Instruction read bandwidth from this memory (bytes/s)
system.physmem.bw_inst_read::switch_cpus09.inst       440270                       # Instruction read bandwidth from this memory (bytes/s)
system.physmem.bw_inst_read::switch_cpus10.inst       366892                       # Instruction read bandwidth from this memory (bytes/s)
system.physmem.bw_inst_read::switch_cpus11.inst       354662                       # Instruction read bandwidth from this memory (bytes/s)
system.physmem.bw_inst_read::switch_cpus12.inst       415810                       # Instruction read bandwidth from this memory (bytes/s)
system.physmem.bw_inst_read::switch_cpus13.inst       440270                       # Instruction read bandwidth from this memory (bytes/s)
system.physmem.bw_inst_read::switch_cpus14.inst       489189                       # Instruction read bandwidth from this memory (bytes/s)
system.physmem.bw_inst_read::switch_cpus15.inst       415810                       # Instruction read bandwidth from this memory (bytes/s)
system.physmem.bw_inst_read::total            6824184                       # Instruction read bandwidth from this memory (bytes/s)
system.physmem.bw_write::writebacks         114042138                       # Write bandwidth from this memory (bytes/s)
system.physmem.bw_write::total              114042138                       # Write bandwidth from this memory (bytes/s)
system.physmem.bw_total::writebacks         114042138                       # Total bandwidth to/from this memory (bytes/s)
system.physmem.bw_total::switch_cpus00.inst       464729                       # Total bandwidth to/from this memory (bytes/s)
system.physmem.bw_total::switch_cpus00.data     17464040                       # Total bandwidth to/from this memory (bytes/s)
system.physmem.bw_total::switch_cpus01.inst       452500                       # Total bandwidth to/from this memory (bytes/s)
system.physmem.bw_total::switch_cpus01.data     35453958                       # Total bandwidth to/from this memory (bytes/s)
system.physmem.bw_total::switch_cpus02.inst       415810                       # Total bandwidth to/from this memory (bytes/s)
system.physmem.bw_total::switch_cpus02.data     25266601                       # Total bandwidth to/from this memory (bytes/s)
system.physmem.bw_total::switch_cpus03.inst       440270                       # Total bandwidth to/from this memory (bytes/s)
system.physmem.bw_total::switch_cpus03.data     41140778                       # Total bandwidth to/from this memory (bytes/s)
system.physmem.bw_total::switch_cpus04.inst       428040                       # Total bandwidth to/from this memory (bytes/s)
system.physmem.bw_total::switch_cpus04.data     23847954                       # Total bandwidth to/from this memory (bytes/s)
system.physmem.bw_total::switch_cpus05.inst       476959                       # Total bandwidth to/from this memory (bytes/s)
system.physmem.bw_total::switch_cpus05.data     14479988                       # Total bandwidth to/from this memory (bytes/s)
system.physmem.bw_total::switch_cpus06.inst       440270                       # Total bandwidth to/from this memory (bytes/s)
system.physmem.bw_total::switch_cpus06.data     34622337                       # Total bandwidth to/from this memory (bytes/s)
system.physmem.bw_total::switch_cpus07.inst       440270                       # Total bandwidth to/from this memory (bytes/s)
system.physmem.bw_total::switch_cpus07.data     16901473                       # Total bandwidth to/from this memory (bytes/s)
system.physmem.bw_total::switch_cpus08.inst       342432                       # Total bandwidth to/from this memory (bytes/s)
system.physmem.bw_total::switch_cpus08.data     23982481                       # Total bandwidth to/from this memory (bytes/s)
system.physmem.bw_total::switch_cpus09.inst       440270                       # Total bandwidth to/from this memory (bytes/s)
system.physmem.bw_total::switch_cpus09.data     14590056                       # Total bandwidth to/from this memory (bytes/s)
system.physmem.bw_total::switch_cpus10.inst       366892                       # Total bandwidth to/from this memory (bytes/s)
system.physmem.bw_total::switch_cpus10.data     24483899                       # Total bandwidth to/from this memory (bytes/s)
system.physmem.bw_total::switch_cpus11.inst       354662                       # Total bandwidth to/from this memory (bytes/s)
system.physmem.bw_total::switch_cpus11.data     24496129                       # Total bandwidth to/from this memory (bytes/s)
system.physmem.bw_total::switch_cpus12.inst       415810                       # Total bandwidth to/from this memory (bytes/s)
system.physmem.bw_total::switch_cpus12.data     25095385                       # Total bandwidth to/from this memory (bytes/s)
system.physmem.bw_total::switch_cpus13.inst       440270                       # Total bandwidth to/from this memory (bytes/s)
system.physmem.bw_total::switch_cpus13.data     34928080                       # Total bandwidth to/from this memory (bytes/s)
system.physmem.bw_total::switch_cpus14.inst       489189                       # Total bandwidth to/from this memory (bytes/s)
system.physmem.bw_total::switch_cpus14.data     17745324                       # Total bandwidth to/from this memory (bytes/s)
system.physmem.bw_total::switch_cpus15.inst       415810                       # Total bandwidth to/from this memory (bytes/s)
system.physmem.bw_total::switch_cpus15.data     14651204                       # Total bandwidth to/from this memory (bytes/s)
system.physmem.bw_total::total              510016008                       # Total bandwidth to/from this memory (bytes/s)
system.switch_cpus00.dtb.inst_hits                  0                       # ITB inst hits
system.switch_cpus00.dtb.inst_misses                0                       # ITB inst misses
system.switch_cpus00.dtb.read_hits                  0                       # DTB read hits
system.switch_cpus00.dtb.read_misses                0                       # DTB read misses
system.switch_cpus00.dtb.write_hits                 0                       # DTB write hits
system.switch_cpus00.dtb.write_misses               0                       # DTB write misses
system.switch_cpus00.dtb.flush_tlb                  0                       # Number of times complete TLB was flushed
system.switch_cpus00.dtb.flush_tlb_mva              0                       # Number of times TLB was flushed by MVA
system.switch_cpus00.dtb.flush_tlb_mva_asid            0                       # Number of times TLB was flushed by MVA & ASID
system.switch_cpus00.dtb.flush_tlb_asid             0                       # Number of times TLB was flushed by ASID
system.switch_cpus00.dtb.flush_entries              0                       # Number of entries that have been flushed from TLB
system.switch_cpus00.dtb.align_faults               0                       # Number of TLB faults due to alignment restrictions
system.switch_cpus00.dtb.prefetch_faults            0                       # Number of TLB faults due to prefetch
system.switch_cpus00.dtb.domain_faults              0                       # Number of TLB faults due to domain restrictions
system.switch_cpus00.dtb.perms_faults               0                       # Number of TLB faults due to permissions restrictions
system.switch_cpus00.dtb.read_accesses              0                       # DTB read accesses
system.switch_cpus00.dtb.write_accesses             0                       # DTB write accesses
system.switch_cpus00.dtb.inst_accesses              0                       # ITB inst accesses
system.switch_cpus00.dtb.hits                       0                       # DTB hits
system.switch_cpus00.dtb.misses                     0                       # DTB misses
system.switch_cpus00.dtb.accesses                   0                       # DTB accesses
system.switch_cpus00.itb.inst_hits                  0                       # ITB inst hits
system.switch_cpus00.itb.inst_misses                0                       # ITB inst misses
system.switch_cpus00.itb.read_hits                  0                       # DTB read hits
system.switch_cpus00.itb.read_misses                0                       # DTB read misses
system.switch_cpus00.itb.write_hits                 0                       # DTB write hits
system.switch_cpus00.itb.write_misses               0                       # DTB write misses
system.switch_cpus00.itb.flush_tlb                  0                       # Number of times complete TLB was flushed
system.switch_cpus00.itb.flush_tlb_mva              0                       # Number of times TLB was flushed by MVA
system.switch_cpus00.itb.flush_tlb_mva_asid            0                       # Number of times TLB was flushed by MVA & ASID
system.switch_cpus00.itb.flush_tlb_asid             0                       # Number of times TLB was flushed by ASID
system.switch_cpus00.itb.flush_entries              0                       # Number of entries that have been flushed from TLB
system.switch_cpus00.itb.align_faults               0                       # Number of TLB faults due to alignment restrictions
system.switch_cpus00.itb.prefetch_faults            0                       # Number of TLB faults due to prefetch
system.switch_cpus00.itb.domain_faults              0                       # Number of TLB faults due to domain restrictions
system.switch_cpus00.itb.perms_faults               0                       # Number of TLB faults due to permissions restrictions
system.switch_cpus00.itb.read_accesses              0                       # DTB read accesses
system.switch_cpus00.itb.write_accesses             0                       # DTB write accesses
system.switch_cpus00.itb.inst_accesses              0                       # ITB inst accesses
system.switch_cpus00.itb.hits                       0                       # DTB hits
system.switch_cpus00.itb.misses                     0                       # DTB misses
system.switch_cpus00.itb.accesses                   0                       # DTB accesses
system.cpu00.workload.num_syscalls                  5                       # Number of system calls
system.switch_cpus00.numCycles               25099058                       # number of cpu cycles simulated
system.switch_cpus00.numWorkItemsStarted            0                       # number of work items this cpu started
system.switch_cpus00.numWorkItemsCompleted            0                       # number of work items this cpu completed
system.switch_cpus00.BPredUnit.lookups        2068676                       # Number of BP lookups
system.switch_cpus00.BPredUnit.condPredicted      1692543                       # Number of conditional branches predicted
system.switch_cpus00.BPredUnit.condIncorrect       204166                       # Number of conditional branches incorrect
system.switch_cpus00.BPredUnit.BTBLookups       868379                       # Number of BTB lookups
system.switch_cpus00.BPredUnit.BTBHits         814675                       # Number of BTB hits
system.switch_cpus00.BPredUnit.BTBCorrect            0                       # Number of correct BTB predictions (this stat may not work properly.
system.switch_cpus00.BPredUnit.usedRAS         214066                       # Number of times the RAS was used to get a target.
system.switch_cpus00.BPredUnit.RASInCorrect         9300                       # Number of incorrect RAS predictions.
system.switch_cpus00.fetch.icacheStallCycles     19942122                       # Number of cycles fetch is stalled on an Icache miss
system.switch_cpus00.fetch.Insts             11560275                       # Number of instructions fetch has processed
system.switch_cpus00.fetch.Branches           2068676                       # Number of branches that fetch encountered
system.switch_cpus00.fetch.predictedBranches      1028741                       # Number of branches that fetch has predicted taken
system.switch_cpus00.fetch.Cycles             2413914                       # Number of cycles fetch has run and was not squashing or blocked
system.switch_cpus00.fetch.SquashCycles        555995                       # Number of cycles fetch has spent squashing
system.switch_cpus00.fetch.BlockedCycles       456696                       # Number of cycles fetch has spent blocked
system.switch_cpus00.fetch.CacheLines         1221429                       # Number of cache lines fetched
system.switch_cpus00.fetch.IcacheSquashes       204158                       # Number of outstanding Icache misses that were squashed
system.switch_cpus00.fetch.rateDist::samples     23161932                       # Number of instructions fetched each cycle (Total)
system.switch_cpus00.fetch.rateDist::mean     0.613127                       # Number of instructions fetched each cycle (Total)
system.switch_cpus00.fetch.rateDist::stdev     1.955225                       # Number of instructions fetched each cycle (Total)
system.switch_cpus00.fetch.rateDist::underflows            0      0.00%      0.00% # Number of instructions fetched each cycle (Total)
system.switch_cpus00.fetch.rateDist::0       20748018     89.58%     89.58% # Number of instructions fetched each cycle (Total)
system.switch_cpus00.fetch.rateDist::1         112723      0.49%     90.06% # Number of instructions fetched each cycle (Total)
system.switch_cpus00.fetch.rateDist::2         178389      0.77%     90.83% # Number of instructions fetched each cycle (Total)
system.switch_cpus00.fetch.rateDist::3         242000      1.04%     91.88% # Number of instructions fetched each cycle (Total)
system.switch_cpus00.fetch.rateDist::4         249096      1.08%     92.96% # Number of instructions fetched each cycle (Total)
system.switch_cpus00.fetch.rateDist::5         210199      0.91%     93.86% # Number of instructions fetched each cycle (Total)
system.switch_cpus00.fetch.rateDist::6         118880      0.51%     94.38% # Number of instructions fetched each cycle (Total)
system.switch_cpus00.fetch.rateDist::7         175976      0.76%     95.14% # Number of instructions fetched each cycle (Total)
system.switch_cpus00.fetch.rateDist::8        1126651      4.86%    100.00% # Number of instructions fetched each cycle (Total)
system.switch_cpus00.fetch.rateDist::overflows            0      0.00%    100.00% # Number of instructions fetched each cycle (Total)
system.switch_cpus00.fetch.rateDist::min_value            0                       # Number of instructions fetched each cycle (Total)
system.switch_cpus00.fetch.rateDist::max_value            8                       # Number of instructions fetched each cycle (Total)
system.switch_cpus00.fetch.rateDist::total     23161932                       # Number of instructions fetched each cycle (Total)
system.switch_cpus00.fetch.branchRate        0.082420                       # Number of branch fetches per cycle
system.switch_cpus00.fetch.rate              0.460586                       # Number of inst fetches per cycle
system.switch_cpus00.decode.IdleCycles       19740730                       # Number of cycles decode is idle
system.switch_cpus00.decode.BlockedCycles       660062                       # Number of cycles decode is blocked
system.switch_cpus00.decode.RunCycles         2409490                       # Number of cycles decode is running
system.switch_cpus00.decode.UnblockCycles         2706                       # Number of cycles decode is unblocking
system.switch_cpus00.decode.SquashCycles       348939                       # Number of cycles decode is squashing
system.switch_cpus00.decode.BranchResolved       340319                       # Number of times decode resolved a branch
system.switch_cpus00.decode.BranchMispred          262                       # Number of times decode detected a branch misprediction
system.switch_cpus00.decode.DecodedInsts     14188315                       # Number of instructions handled by decode
system.switch_cpus00.decode.SquashedInsts         1522                       # Number of squashed instructions handled by decode
system.switch_cpus00.rename.SquashCycles       348939                       # Number of cycles rename is squashing
system.switch_cpus00.rename.IdleCycles       19794787                       # Number of cycles rename is idle
system.switch_cpus00.rename.BlockCycles        135669                       # Number of cycles rename is blocking
system.switch_cpus00.rename.serializeStallCycles       400983                       # count of cycles rename stalled for serializing inst
system.switch_cpus00.rename.RunCycles         2358877                       # Number of cycles rename is running
system.switch_cpus00.rename.UnblockCycles       122672                       # Number of cycles rename is unblocking
system.switch_cpus00.rename.RenamedInsts     14182927                       # Number of instructions processed by rename
system.switch_cpus00.rename.ROBFullEvents           22                       # Number of times rename has blocked due to ROB full
system.switch_cpus00.rename.IQFullEvents        16527                       # Number of times rename has blocked due to IQ full
system.switch_cpus00.rename.LSQFullEvents        53538                       # Number of times rename has blocked due to LSQ full
system.switch_cpus00.rename.RenamedOperands     19789902                       # Number of destination operands rename has renamed
system.switch_cpus00.rename.RenameLookups     65974964                       # Number of register rename lookups that rename has made
system.switch_cpus00.rename.int_rename_lookups     65974964                       # Number of integer rename lookups
system.switch_cpus00.rename.CommittedMaps     17153378                       # Number of HB maps that are committed
system.switch_cpus00.rename.UndoneMaps        2636519                       # Number of HB maps that are undone due to squashing
system.switch_cpus00.rename.serializingInsts         3535                       # count of serializing insts renamed
system.switch_cpus00.rename.tempSerializingInsts         1843                       # count of temporary serializing insts renamed
system.switch_cpus00.rename.skidInsts          369249                       # count of insts added to the skid buffer
system.switch_cpus00.memDep0.insertedLoads      1330522                       # Number of loads inserted to the mem dependence unit.
system.switch_cpus00.memDep0.insertedStores       719059                       # Number of stores inserted to the mem dependence unit.
system.switch_cpus00.memDep0.conflictingLoads         8458                       # Number of conflicting loads.
system.switch_cpus00.memDep0.conflictingStores       254762                       # Number of conflicting stores.
system.switch_cpus00.iq.iqInstsAdded         14166096                       # Number of instructions added to the IQ (excludes non-spec)
system.switch_cpus00.iq.iqNonSpecInstsAdded         3545                       # Number of non-speculative instructions added to the IQ
system.switch_cpus00.iq.iqInstsIssued        13457179                       # Number of instructions issued
system.switch_cpus00.iq.iqSquashedInstsIssued         1955                       # Number of squashed instructions issued
system.switch_cpus00.iq.iqSquashedInstsExamined      1565712                       # Number of squashed instructions iterated over during squash; mainly for profiling
system.switch_cpus00.iq.iqSquashedOperandsExamined      3730875                       # Number of squashed operands that are examined and possibly removed from graph
system.switch_cpus00.iq.iqSquashedNonSpecRemoved          146                       # Number of squashed non-spec instructions that were removed
system.switch_cpus00.iq.issued_per_cycle::samples     23161932                       # Number of insts issued each cycle
system.switch_cpus00.iq.issued_per_cycle::mean     0.581004                       # Number of insts issued each cycle
system.switch_cpus00.iq.issued_per_cycle::stdev     1.267910                       # Number of insts issued each cycle
system.switch_cpus00.iq.issued_per_cycle::underflows            0      0.00%      0.00% # Number of insts issued each cycle
system.switch_cpus00.iq.issued_per_cycle::0     17401977     75.13%     75.13% # Number of insts issued each cycle
system.switch_cpus00.iq.issued_per_cycle::1      2421603     10.46%     85.59% # Number of insts issued each cycle
system.switch_cpus00.iq.issued_per_cycle::2      1212375      5.23%     90.82% # Number of insts issued each cycle
system.switch_cpus00.iq.issued_per_cycle::3       866961      3.74%     94.56% # Number of insts issued each cycle
system.switch_cpus00.iq.issued_per_cycle::4       689278      2.98%     97.54% # Number of insts issued each cycle
system.switch_cpus00.iq.issued_per_cycle::5       284244      1.23%     98.77% # Number of insts issued each cycle
system.switch_cpus00.iq.issued_per_cycle::6       179445      0.77%     99.54% # Number of insts issued each cycle
system.switch_cpus00.iq.issued_per_cycle::7        93451      0.40%     99.95% # Number of insts issued each cycle
system.switch_cpus00.iq.issued_per_cycle::8        12598      0.05%    100.00% # Number of insts issued each cycle
system.switch_cpus00.iq.issued_per_cycle::overflows            0      0.00%    100.00% # Number of insts issued each cycle
system.switch_cpus00.iq.issued_per_cycle::min_value            0                       # Number of insts issued each cycle
system.switch_cpus00.iq.issued_per_cycle::max_value            8                       # Number of insts issued each cycle
system.switch_cpus00.iq.issued_per_cycle::total     23161932                       # Number of insts issued each cycle
system.switch_cpus00.iq.fu_full::No_OpClass            0      0.00%      0.00% # attempts to use FU when none available
system.switch_cpus00.iq.fu_full::IntAlu          2502     11.09%     11.09% # attempts to use FU when none available
system.switch_cpus00.iq.fu_full::IntMult            0      0.00%     11.09% # attempts to use FU when none available
system.switch_cpus00.iq.fu_full::IntDiv             0      0.00%     11.09% # attempts to use FU when none available
system.switch_cpus00.iq.fu_full::FloatAdd            0      0.00%     11.09% # attempts to use FU when none available
system.switch_cpus00.iq.fu_full::FloatCmp            0      0.00%     11.09% # attempts to use FU when none available
system.switch_cpus00.iq.fu_full::FloatCvt            0      0.00%     11.09% # attempts to use FU when none available
system.switch_cpus00.iq.fu_full::FloatMult            0      0.00%     11.09% # attempts to use FU when none available
system.switch_cpus00.iq.fu_full::FloatDiv            0      0.00%     11.09% # attempts to use FU when none available
system.switch_cpus00.iq.fu_full::FloatSqrt            0      0.00%     11.09% # attempts to use FU when none available
system.switch_cpus00.iq.fu_full::SimdAdd            0      0.00%     11.09% # attempts to use FU when none available
system.switch_cpus00.iq.fu_full::SimdAddAcc            0      0.00%     11.09% # attempts to use FU when none available
system.switch_cpus00.iq.fu_full::SimdAlu            0      0.00%     11.09% # attempts to use FU when none available
system.switch_cpus00.iq.fu_full::SimdCmp            0      0.00%     11.09% # attempts to use FU when none available
system.switch_cpus00.iq.fu_full::SimdCvt            0      0.00%     11.09% # attempts to use FU when none available
system.switch_cpus00.iq.fu_full::SimdMisc            0      0.00%     11.09% # attempts to use FU when none available
system.switch_cpus00.iq.fu_full::SimdMult            0      0.00%     11.09% # attempts to use FU when none available
system.switch_cpus00.iq.fu_full::SimdMultAcc            0      0.00%     11.09% # attempts to use FU when none available
system.switch_cpus00.iq.fu_full::SimdShift            0      0.00%     11.09% # attempts to use FU when none available
system.switch_cpus00.iq.fu_full::SimdShiftAcc            0      0.00%     11.09% # attempts to use FU when none available
system.switch_cpus00.iq.fu_full::SimdSqrt            0      0.00%     11.09% # attempts to use FU when none available
system.switch_cpus00.iq.fu_full::SimdFloatAdd            0      0.00%     11.09% # attempts to use FU when none available
system.switch_cpus00.iq.fu_full::SimdFloatAlu            0      0.00%     11.09% # attempts to use FU when none available
system.switch_cpus00.iq.fu_full::SimdFloatCmp            0      0.00%     11.09% # attempts to use FU when none available
system.switch_cpus00.iq.fu_full::SimdFloatCvt            0      0.00%     11.09% # attempts to use FU when none available
system.switch_cpus00.iq.fu_full::SimdFloatDiv            0      0.00%     11.09% # attempts to use FU when none available
system.switch_cpus00.iq.fu_full::SimdFloatMisc            0      0.00%     11.09% # attempts to use FU when none available
system.switch_cpus00.iq.fu_full::SimdFloatMult            0      0.00%     11.09% # attempts to use FU when none available
system.switch_cpus00.iq.fu_full::SimdFloatMultAcc            0      0.00%     11.09% # attempts to use FU when none available
system.switch_cpus00.iq.fu_full::SimdFloatSqrt            0      0.00%     11.09% # attempts to use FU when none available
system.switch_cpus00.iq.fu_full::MemRead         8235     36.51%     47.60% # attempts to use FU when none available
system.switch_cpus00.iq.fu_full::MemWrite        11820     52.40%    100.00% # attempts to use FU when none available
system.switch_cpus00.iq.fu_full::IprAccess            0      0.00%    100.00% # attempts to use FU when none available
system.switch_cpus00.iq.fu_full::InstPrefetch            0      0.00%    100.00% # attempts to use FU when none available
system.switch_cpus00.iq.FU_type_0::No_OpClass            0      0.00%      0.00% # Type of FU issued
system.switch_cpus00.iq.FU_type_0::IntAlu     11318291     84.11%     84.11% # Type of FU issued
system.switch_cpus00.iq.FU_type_0::IntMult       200046      1.49%     85.59% # Type of FU issued
system.switch_cpus00.iq.FU_type_0::IntDiv            0      0.00%     85.59% # Type of FU issued
system.switch_cpus00.iq.FU_type_0::FloatAdd            0      0.00%     85.59% # Type of FU issued
system.switch_cpus00.iq.FU_type_0::FloatCmp            0      0.00%     85.59% # Type of FU issued
system.switch_cpus00.iq.FU_type_0::FloatCvt            0      0.00%     85.59% # Type of FU issued
system.switch_cpus00.iq.FU_type_0::FloatMult            0      0.00%     85.59% # Type of FU issued
system.switch_cpus00.iq.FU_type_0::FloatDiv            0      0.00%     85.59% # Type of FU issued
system.switch_cpus00.iq.FU_type_0::FloatSqrt            0      0.00%     85.59% # Type of FU issued
system.switch_cpus00.iq.FU_type_0::SimdAdd            0      0.00%     85.59% # Type of FU issued
system.switch_cpus00.iq.FU_type_0::SimdAddAcc            0      0.00%     85.59% # Type of FU issued
system.switch_cpus00.iq.FU_type_0::SimdAlu            0      0.00%     85.59% # Type of FU issued
system.switch_cpus00.iq.FU_type_0::SimdCmp            0      0.00%     85.59% # Type of FU issued
system.switch_cpus00.iq.FU_type_0::SimdCvt            0      0.00%     85.59% # Type of FU issued
system.switch_cpus00.iq.FU_type_0::SimdMisc            0      0.00%     85.59% # Type of FU issued
system.switch_cpus00.iq.FU_type_0::SimdMult            0      0.00%     85.59% # Type of FU issued
system.switch_cpus00.iq.FU_type_0::SimdMultAcc            0      0.00%     85.59% # Type of FU issued
system.switch_cpus00.iq.FU_type_0::SimdShift            0      0.00%     85.59% # Type of FU issued
system.switch_cpus00.iq.FU_type_0::SimdShiftAcc            0      0.00%     85.59% # Type of FU issued
system.switch_cpus00.iq.FU_type_0::SimdSqrt            0      0.00%     85.59% # Type of FU issued
system.switch_cpus00.iq.FU_type_0::SimdFloatAdd            0      0.00%     85.59% # Type of FU issued
system.switch_cpus00.iq.FU_type_0::SimdFloatAlu            0      0.00%     85.59% # Type of FU issued
system.switch_cpus00.iq.FU_type_0::SimdFloatCmp            0      0.00%     85.59% # Type of FU issued
system.switch_cpus00.iq.FU_type_0::SimdFloatCvt            0      0.00%     85.59% # Type of FU issued
system.switch_cpus00.iq.FU_type_0::SimdFloatDiv            0      0.00%     85.59% # Type of FU issued
system.switch_cpus00.iq.FU_type_0::SimdFloatMisc         1687      0.01%     85.61% # Type of FU issued
system.switch_cpus00.iq.FU_type_0::SimdFloatMult            0      0.00%     85.61% # Type of FU issued
system.switch_cpus00.iq.FU_type_0::SimdFloatMultAcc            0      0.00%     85.61% # Type of FU issued
system.switch_cpus00.iq.FU_type_0::SimdFloatSqrt            0      0.00%     85.61% # Type of FU issued
system.switch_cpus00.iq.FU_type_0::MemRead      1220592      9.07%     94.68% # Type of FU issued
system.switch_cpus00.iq.FU_type_0::MemWrite       716563      5.32%    100.00% # Type of FU issued
system.switch_cpus00.iq.FU_type_0::IprAccess            0      0.00%    100.00% # Type of FU issued
system.switch_cpus00.iq.FU_type_0::InstPrefetch            0      0.00%    100.00% # Type of FU issued
system.switch_cpus00.iq.FU_type_0::total     13457179                       # Type of FU issued
system.switch_cpus00.iq.rate                 0.536163                       # Inst issue rate
system.switch_cpus00.iq.fu_busy_cnt             22557                       # FU busy when requested
system.switch_cpus00.iq.fu_busy_rate         0.001676                       # FU busy rate (busy events/executed inst)
system.switch_cpus00.iq.int_inst_queue_reads     50100802                       # Number of integer instruction queue reads
system.switch_cpus00.iq.int_inst_queue_writes     15735411                       # Number of integer instruction queue writes
system.switch_cpus00.iq.int_inst_queue_wakeup_accesses     13251496                       # Number of integer instruction queue wakeup accesses
system.switch_cpus00.iq.fp_inst_queue_reads            0                       # Number of floating instruction queue reads
system.switch_cpus00.iq.fp_inst_queue_writes            0                       # Number of floating instruction queue writes
system.switch_cpus00.iq.fp_inst_queue_wakeup_accesses            0                       # Number of floating instruction queue wakeup accesses
system.switch_cpus00.iq.int_alu_accesses     13479736                       # Number of integer alu accesses
system.switch_cpus00.iq.fp_alu_accesses             0                       # Number of floating point alu accesses
system.switch_cpus00.iew.lsq.thread0.forwLoads        27447                       # Number of loads that had data forwarded from stores
system.switch_cpus00.iew.lsq.thread0.invAddrLoads            0                       # Number of loads ignored due to an invalid address
system.switch_cpus00.iew.lsq.thread0.squashedLoads       215973                       # Number of loads squashed
system.switch_cpus00.iew.lsq.thread0.ignoredResponses            8                       # Number of memory responses ignored because the instruction is squashed
system.switch_cpus00.iew.lsq.thread0.memOrderViolation           62                       # Number of memory ordering violations
system.switch_cpus00.iew.lsq.thread0.squashedStores        10008                       # Number of stores squashed
system.switch_cpus00.iew.lsq.thread0.invAddrSwpfs            0                       # Number of software prefetches ignored due to an invalid address
system.switch_cpus00.iew.lsq.thread0.blockedLoads            0                       # Number of blocked loads due to partial load-store forwarding
system.switch_cpus00.iew.lsq.thread0.rescheduledLoads            0                       # Number of loads that were rescheduled
system.switch_cpus00.iew.lsq.thread0.cacheBlocked            0                       # Number of times an access to memory failed due to the cache being blocked
system.switch_cpus00.iew.iewIdleCycles              0                       # Number of cycles IEW is idle
system.switch_cpus00.iew.iewSquashCycles       348939                       # Number of cycles IEW is squashing
system.switch_cpus00.iew.iewBlockCycles        108224                       # Number of cycles IEW is blocking
system.switch_cpus00.iew.iewUnblockCycles        12022                       # Number of cycles IEW is unblocking
system.switch_cpus00.iew.iewDispatchedInsts     14169661                       # Number of instructions dispatched to IQ
system.switch_cpus00.iew.iewDispSquashedInsts         1645                       # Number of squashed instructions skipped by dispatch
system.switch_cpus00.iew.iewDispLoadInsts      1330522                       # Number of dispatched load instructions
system.switch_cpus00.iew.iewDispStoreInsts       719059                       # Number of dispatched store instructions
system.switch_cpus00.iew.iewDispNonSpecInsts         1847                       # Number of dispatched non-speculative instructions
system.switch_cpus00.iew.iewIQFullEvents        10155                       # Number of times the IQ has become full, causing a stall
system.switch_cpus00.iew.iewLSQFullEvents            0                       # Number of times the LSQ has become full, causing a stall
system.switch_cpus00.iew.memOrderViolationEvents           62                       # Number of memory order violations
system.switch_cpus00.iew.predictedTakenIncorrect       118369                       # Number of branches that were predicted taken incorrectly
system.switch_cpus00.iew.predictedNotTakenIncorrect       114556                       # Number of branches that were predicted not taken incorrectly
system.switch_cpus00.iew.branchMispredicts       232925                       # Number of branch mispredicts detected at execute
system.switch_cpus00.iew.iewExecutedInsts     13268249                       # Number of executed instructions
system.switch_cpus00.iew.iewExecLoadInsts      1147751                       # Number of load instructions executed
system.switch_cpus00.iew.iewExecSquashedInsts       188930                       # Number of squashed instructions skipped in execute
system.switch_cpus00.iew.exec_swp                   0                       # number of swp insts executed
system.switch_cpus00.iew.exec_nop                  20                       # number of nop insts executed
system.switch_cpus00.iew.exec_refs            1864255                       # number of memory reference insts executed
system.switch_cpus00.iew.exec_branches        1885158                       # Number of branches executed
system.switch_cpus00.iew.exec_stores           716504                       # Number of stores executed
system.switch_cpus00.iew.exec_rate           0.528635                       # Inst execution rate
system.switch_cpus00.iew.wb_sent             13251607                       # cumulative count of insts sent to commit
system.switch_cpus00.iew.wb_count            13251496                       # cumulative count of insts written-back
system.switch_cpus00.iew.wb_producers         7607378                       # num instructions producing a value
system.switch_cpus00.iew.wb_consumers        20503341                       # num instructions consuming a value
system.switch_cpus00.iew.wb_penalized               0                       # number of instrctions required to write to 'other' IQ
system.switch_cpus00.iew.wb_rate             0.527968                       # insts written-back per cycle
system.switch_cpus00.iew.wb_fanout           0.371031                       # average fanout of values written-back
system.switch_cpus00.iew.wb_penalized_rate            0                       # fraction of instructions written-back that wrote to 'other' IQ
system.switch_cpus00.commit.commitCommittedInsts     10000000                       # The number of committed instructions
system.switch_cpus00.commit.commitCommittedOps     12305288                       # The number of committed instructions
system.switch_cpus00.commit.commitSquashedInsts      1864380                       # The number of squashed insts skipped by commit
system.switch_cpus00.commit.commitNonSpecStalls         3399                       # The number of times commit has been forced to stall to communicate backwards
system.switch_cpus00.commit.branchMispredicts       206494                       # The number of times a branch was mispredicted
system.switch_cpus00.commit.committed_per_cycle::samples     22812993                       # Number of insts commited each cycle
system.switch_cpus00.commit.committed_per_cycle::mean     0.539398                       # Number of insts commited each cycle
system.switch_cpus00.commit.committed_per_cycle::stdev     1.378368                       # Number of insts commited each cycle
system.switch_cpus00.commit.committed_per_cycle::underflows            0      0.00%      0.00% # Number of insts commited each cycle
system.switch_cpus00.commit.committed_per_cycle::0     17710922     77.64%     77.64% # Number of insts commited each cycle
system.switch_cpus00.commit.committed_per_cycle::1      2554387     11.20%     88.83% # Number of insts commited each cycle
system.switch_cpus00.commit.committed_per_cycle::2       940657      4.12%     92.96% # Number of insts commited each cycle
system.switch_cpus00.commit.committed_per_cycle::3       449747      1.97%     94.93% # Number of insts commited each cycle
system.switch_cpus00.commit.committed_per_cycle::4       413528      1.81%     96.74% # Number of insts commited each cycle
system.switch_cpus00.commit.committed_per_cycle::5       219353      0.96%     97.70% # Number of insts commited each cycle
system.switch_cpus00.commit.committed_per_cycle::6       169562      0.74%     98.44% # Number of insts commited each cycle
system.switch_cpus00.commit.committed_per_cycle::7        86599      0.38%     98.82% # Number of insts commited each cycle
system.switch_cpus00.commit.committed_per_cycle::8       268238      1.18%    100.00% # Number of insts commited each cycle
system.switch_cpus00.commit.committed_per_cycle::overflows            0      0.00%    100.00% # Number of insts commited each cycle
system.switch_cpus00.commit.committed_per_cycle::min_value            0                       # Number of insts commited each cycle
system.switch_cpus00.commit.committed_per_cycle::max_value            8                       # Number of insts commited each cycle
system.switch_cpus00.commit.committed_per_cycle::total     22812993                       # Number of insts commited each cycle
system.switch_cpus00.commit.committedInsts     10000000                       # Number of instructions committed
system.switch_cpus00.commit.committedOps     12305288                       # Number of ops (including micro ops) committed
system.switch_cpus00.commit.swp_count               0                       # Number of s/w prefetches committed
system.switch_cpus00.commit.refs              1823600                       # Number of memory references committed
system.switch_cpus00.commit.loads             1114549                       # Number of loads committed
system.switch_cpus00.commit.membars              1696                       # Number of memory barriers committed
system.switch_cpus00.commit.branches          1774540                       # Number of branches committed
system.switch_cpus00.commit.fp_insts                0                       # Number of committed floating point instructions.
system.switch_cpus00.commit.int_insts        11086900                       # Number of committed integer instructions.
system.switch_cpus00.commit.function_calls       253435                       # Number of function calls committed.
system.switch_cpus00.commit.bw_lim_events       268238                       # number cycles where commit BW limit reached
system.switch_cpus00.commit.bw_limited              0                       # number of insts not committed due to BW limits
system.switch_cpus00.rob.rob_reads           36714358                       # The number of ROB reads
system.switch_cpus00.rob.rob_writes          28688290                       # The number of ROB writes
system.switch_cpus00.timesIdled                304011                       # Number of times that the entire CPU went into an idle state and unscheduled itself
system.switch_cpus00.idleCycles               1937126                       # Total number of cycles that the CPU has spent unscheduled due to idling
system.switch_cpus00.committedInsts          10000000                       # Number of Instructions Simulated
system.switch_cpus00.committedOps            12305288                       # Number of Ops (including micro ops) Simulated
system.switch_cpus00.committedInsts_total     10000000                       # Number of Instructions Simulated
system.switch_cpus00.cpi                     2.509906                       # CPI: Cycles Per Instruction
system.switch_cpus00.cpi_total               2.509906                       # CPI: Total CPI of All Threads
system.switch_cpus00.ipc                     0.398421                       # IPC: Instructions Per Cycle
system.switch_cpus00.ipc_total               0.398421                       # IPC: Total IPC of All Threads
system.switch_cpus00.int_regfile_reads       59719735                       # number of integer regfile reads
system.switch_cpus00.int_regfile_writes      18459790                       # number of integer regfile writes
system.switch_cpus00.misc_regfile_reads      13150229                       # number of misc regfile reads
system.switch_cpus00.misc_regfile_writes         3396                       # number of misc regfile writes
system.switch_cpus01.dtb.inst_hits                  0                       # ITB inst hits
system.switch_cpus01.dtb.inst_misses                0                       # ITB inst misses
system.switch_cpus01.dtb.read_hits                  0                       # DTB read hits
system.switch_cpus01.dtb.read_misses                0                       # DTB read misses
system.switch_cpus01.dtb.write_hits                 0                       # DTB write hits
system.switch_cpus01.dtb.write_misses               0                       # DTB write misses
system.switch_cpus01.dtb.flush_tlb                  0                       # Number of times complete TLB was flushed
system.switch_cpus01.dtb.flush_tlb_mva              0                       # Number of times TLB was flushed by MVA
system.switch_cpus01.dtb.flush_tlb_mva_asid            0                       # Number of times TLB was flushed by MVA & ASID
system.switch_cpus01.dtb.flush_tlb_asid             0                       # Number of times TLB was flushed by ASID
system.switch_cpus01.dtb.flush_entries              0                       # Number of entries that have been flushed from TLB
system.switch_cpus01.dtb.align_faults               0                       # Number of TLB faults due to alignment restrictions
system.switch_cpus01.dtb.prefetch_faults            0                       # Number of TLB faults due to prefetch
system.switch_cpus01.dtb.domain_faults              0                       # Number of TLB faults due to domain restrictions
system.switch_cpus01.dtb.perms_faults               0                       # Number of TLB faults due to permissions restrictions
system.switch_cpus01.dtb.read_accesses              0                       # DTB read accesses
system.switch_cpus01.dtb.write_accesses             0                       # DTB write accesses
system.switch_cpus01.dtb.inst_accesses              0                       # ITB inst accesses
system.switch_cpus01.dtb.hits                       0                       # DTB hits
system.switch_cpus01.dtb.misses                     0                       # DTB misses
system.switch_cpus01.dtb.accesses                   0                       # DTB accesses
system.switch_cpus01.itb.inst_hits                  0                       # ITB inst hits
[...]
system.cpu15.icache.demand_avg_miss_latency::switch_cpus15.inst       162653                       # average overall miss latency
system.cpu15.icache.demand_avg_miss_latency::total       162653                       # average overall miss latency
system.cpu15.icache.overall_avg_miss_latency::switch_cpus15.inst       162653                       # average overall miss latency
system.cpu15.icache.overall_avg_miss_latency::total       162653                       # average overall miss latency
system.cpu15.icache.blocked_cycles::no_mshrs            0                       # number of cycles access was blocked
system.cpu15.icache.blocked_cycles::no_targets            0                       # number of cycles access was blocked
system.cpu15.icache.blocked::no_mshrs               0                       # number of cycles access was blocked
system.cpu15.icache.blocked::no_targets             0                       # number of cycles access was blocked
system.cpu15.icache.avg_blocked_cycles::no_mshrs          nan                       # average number of cycles each access was blocked
system.cpu15.icache.avg_blocked_cycles::no_targets          nan                       # average number of cycles each access was blocked
system.cpu15.icache.fast_writes                     0                       # number of fast writes performed
system.cpu15.icache.cache_copies                    0                       # number of cache copies performed
system.cpu15.icache.ReadReq_mshr_hits::switch_cpus15.inst           12                       # number of ReadReq MSHR hits
system.cpu15.icache.ReadReq_mshr_hits::total           12                       # number of ReadReq MSHR hits
system.cpu15.icache.demand_mshr_hits::switch_cpus15.inst           12                       # number of demand (read+write) MSHR hits
system.cpu15.icache.demand_mshr_hits::total           12                       # number of demand (read+write) MSHR hits
system.cpu15.icache.overall_mshr_hits::switch_cpus15.inst           12                       # number of overall MSHR hits
system.cpu15.icache.overall_mshr_hits::total           12                       # number of overall MSHR hits
system.cpu15.icache.ReadReq_mshr_misses::switch_cpus15.inst           36                       # number of ReadReq MSHR misses
system.cpu15.icache.ReadReq_mshr_misses::total           36                       # number of ReadReq MSHR misses
system.cpu15.icache.demand_mshr_misses::switch_cpus15.inst           36                       # number of demand (read+write) MSHR misses
system.cpu15.icache.demand_mshr_misses::total           36                       # number of demand (read+write) MSHR misses
system.cpu15.icache.overall_mshr_misses::switch_cpus15.inst           36                       # number of overall MSHR misses
system.cpu15.icache.overall_mshr_misses::total           36                       # number of overall MSHR misses
system.cpu15.icache.ReadReq_mshr_miss_latency::switch_cpus15.inst      5945733                       # number of ReadReq MSHR miss cycles
system.cpu15.icache.ReadReq_mshr_miss_latency::total      5945733                       # number of ReadReq MSHR miss cycles
system.cpu15.icache.demand_mshr_miss_latency::switch_cpus15.inst      5945733                       # number of demand (read+write) MSHR miss cycles
system.cpu15.icache.demand_mshr_miss_latency::total      5945733                       # number of demand (read+write) MSHR miss cycles
system.cpu15.icache.overall_mshr_miss_latency::switch_cpus15.inst      5945733                       # number of overall MSHR miss cycles
system.cpu15.icache.overall_mshr_miss_latency::total      5945733                       # number of overall MSHR miss cycles
system.cpu15.icache.ReadReq_mshr_miss_rate::switch_cpus15.inst     0.000029                       # mshr miss rate for ReadReq accesses
system.cpu15.icache.ReadReq_mshr_miss_rate::total     0.000029                       # mshr miss rate for ReadReq accesses
system.cpu15.icache.demand_mshr_miss_rate::switch_cpus15.inst     0.000029                       # mshr miss rate for demand accesses
system.cpu15.icache.demand_mshr_miss_rate::total     0.000029                       # mshr miss rate for demand accesses
system.cpu15.icache.overall_mshr_miss_rate::switch_cpus15.inst     0.000029                       # mshr miss rate for overall accesses
system.cpu15.icache.overall_mshr_miss_rate::total     0.000029                       # mshr miss rate for overall accesses
system.cpu15.icache.ReadReq_avg_mshr_miss_latency::switch_cpus15.inst 165159.250000                       # average ReadReq mshr miss latency
system.cpu15.icache.ReadReq_avg_mshr_miss_latency::total 165159.250000                       # average ReadReq mshr miss latency
system.cpu15.icache.demand_avg_mshr_miss_latency::switch_cpus15.inst 165159.250000                       # average overall mshr miss latency
system.cpu15.icache.demand_avg_mshr_miss_latency::total 165159.250000                       # average overall mshr miss latency
system.cpu15.icache.overall_avg_mshr_miss_latency::switch_cpus15.inst 165159.250000                       # average overall mshr miss latency
system.cpu15.icache.overall_avg_mshr_miss_latency::total 165159.250000                       # average overall mshr miss latency
system.cpu15.icache.no_allocate_misses              0                       # Number of misses that were no-allocate
system.cpu15.dcache.replacements                 3745                       # number of replacements
system.cpu15.dcache.tagsinuse                     256                       # Cycle average of tags in use
system.cpu15.dcache.total_refs              148944720                       # Total number of references to valid blocks.
system.cpu15.dcache.sampled_refs                 4001                       # Sample count of references to valid blocks.
system.cpu15.dcache.avg_refs             37226.873282                       # Average number of references to valid blocks.
system.cpu15.dcache.warmup_cycle                    0                       # Cycle when the warmup percentage was hit.
system.cpu15.dcache.occ_blocks::switch_cpus15.data   219.418832                       # Average occupied blocks per requestor
system.cpu15.dcache.occ_blocks::cpu15.data    36.581168                       # Average occupied blocks per requestor
system.cpu15.dcache.occ_percent::switch_cpus15.data     0.857105                       # Average percentage of cache occupancy
system.cpu15.dcache.occ_percent::cpu15.data     0.142895                       # Average percentage of cache occupancy
system.cpu15.dcache.occ_percent::total              1                       # Average percentage of cache occupancy
system.cpu15.dcache.ReadReq_hits::switch_cpus15.data       978481                       # number of ReadReq hits
system.cpu15.dcache.ReadReq_hits::total        978481                       # number of ReadReq hits
system.cpu15.dcache.WriteReq_hits::switch_cpus15.data       726491                       # number of WriteReq hits
system.cpu15.dcache.WriteReq_hits::total       726491                       # number of WriteReq hits
system.cpu15.dcache.LoadLockedReq_hits::switch_cpus15.data         1903                       # number of LoadLockedReq hits
system.cpu15.dcache.LoadLockedReq_hits::total         1903                       # number of LoadLockedReq hits
system.cpu15.dcache.StoreCondReq_hits::switch_cpus15.data         1764                       # number of StoreCondReq hits
system.cpu15.dcache.StoreCondReq_hits::total         1764                       # number of StoreCondReq hits
system.cpu15.dcache.demand_hits::switch_cpus15.data      1704972                       # number of demand (read+write) hits
system.cpu15.dcache.demand_hits::total        1704972                       # number of demand (read+write) hits
system.cpu15.dcache.overall_hits::switch_cpus15.data      1704972                       # number of overall hits
system.cpu15.dcache.overall_hits::total       1704972                       # number of overall hits
system.cpu15.dcache.ReadReq_misses::switch_cpus15.data         9535                       # number of ReadReq misses
system.cpu15.dcache.ReadReq_misses::total         9535                       # number of ReadReq misses
system.cpu15.dcache.WriteReq_misses::switch_cpus15.data           40                       # number of WriteReq misses
system.cpu15.dcache.WriteReq_misses::total           40                       # number of WriteReq misses
system.cpu15.dcache.demand_misses::switch_cpus15.data         9575                       # number of demand (read+write) misses
system.cpu15.dcache.demand_misses::total         9575                       # number of demand (read+write) misses
system.cpu15.dcache.overall_misses::switch_cpus15.data         9575                       # number of overall misses
system.cpu15.dcache.overall_misses::total         9575                       # number of overall misses
system.cpu15.dcache.ReadReq_miss_latency::switch_cpus15.data   1021994753                       # number of ReadReq miss cycles
system.cpu15.dcache.ReadReq_miss_latency::total   1021994753                       # number of ReadReq miss cycles
system.cpu15.dcache.WriteReq_miss_latency::switch_cpus15.data      3792966                       # number of WriteReq miss cycles
system.cpu15.dcache.WriteReq_miss_latency::total      3792966                       # number of WriteReq miss cycles
system.cpu15.dcache.demand_miss_latency::switch_cpus15.data   1025787719                       # number of demand (read+write) miss cycles
system.cpu15.dcache.demand_miss_latency::total   1025787719                       # number of demand (read+write) miss cycles
system.cpu15.dcache.overall_miss_latency::switch_cpus15.data   1025787719                       # number of overall miss cycles
system.cpu15.dcache.overall_miss_latency::total   1025787719                       # number of overall miss cycles
system.cpu15.dcache.ReadReq_accesses::switch_cpus15.data       988016                       # number of ReadReq accesses(hits+misses)
system.cpu15.dcache.ReadReq_accesses::total       988016                       # number of ReadReq accesses(hits+misses)
system.cpu15.dcache.WriteReq_accesses::switch_cpus15.data       726531                       # number of WriteReq accesses(hits+misses)
system.cpu15.dcache.WriteReq_accesses::total       726531                       # number of WriteReq accesses(hits+misses)
system.cpu15.dcache.LoadLockedReq_accesses::switch_cpus15.data         1903                       # number of LoadLockedReq accesses(hits+misses)
system.cpu15.dcache.LoadLockedReq_accesses::total         1903                       # number of LoadLockedReq accesses(hits+misses)
system.cpu15.dcache.StoreCondReq_accesses::switch_cpus15.data         1764                       # number of StoreCondReq accesses(hits+misses)
system.cpu15.dcache.StoreCondReq_accesses::total         1764                       # number of StoreCondReq accesses(hits+misses)
system.cpu15.dcache.demand_accesses::switch_cpus15.data      1714547                       # number of demand (read+write) accesses
system.cpu15.dcache.demand_accesses::total      1714547                       # number of demand (read+write) accesses
system.cpu15.dcache.overall_accesses::switch_cpus15.data      1714547                       # number of overall (read+write) accesses
system.cpu15.dcache.overall_accesses::total      1714547                       # number of overall (read+write) accesses
system.cpu15.dcache.ReadReq_miss_rate::switch_cpus15.data     0.009651                       # miss rate for ReadReq accesses
system.cpu15.dcache.ReadReq_miss_rate::total     0.009651                       # miss rate for ReadReq accesses
system.cpu15.dcache.WriteReq_miss_rate::switch_cpus15.data     0.000055                       # miss rate for WriteReq accesses
system.cpu15.dcache.WriteReq_miss_rate::total     0.000055                       # miss rate for WriteReq accesses
system.cpu15.dcache.demand_miss_rate::switch_cpus15.data     0.005585                       # miss rate for demand accesses
system.cpu15.dcache.demand_miss_rate::total     0.005585                       # miss rate for demand accesses
system.cpu15.dcache.overall_miss_rate::switch_cpus15.data     0.005585                       # miss rate for overall accesses
system.cpu15.dcache.overall_miss_rate::total     0.005585                       # miss rate for overall accesses
system.cpu15.dcache.ReadReq_avg_miss_latency::switch_cpus15.data 107183.508443                       # average ReadReq miss latency
system.cpu15.dcache.ReadReq_avg_miss_latency::total 107183.508443                       # average ReadReq miss latency
system.cpu15.dcache.WriteReq_avg_miss_latency::switch_cpus15.data 94824.150000                       # average WriteReq miss latency
system.cpu15.dcache.WriteReq_avg_miss_latency::total 94824.150000                       # average WriteReq miss latency
system.cpu15.dcache.demand_avg_miss_latency::switch_cpus15.data 107131.876658                       # average overall miss latency
system.cpu15.dcache.demand_avg_miss_latency::total 107131.876658                       # average overall miss latency
system.cpu15.dcache.overall_avg_miss_latency::switch_cpus15.data 107131.876658                       # average overall miss latency
system.cpu15.dcache.overall_avg_miss_latency::total 107131.876658                       # average overall miss latency
system.cpu15.dcache.blocked_cycles::no_mshrs            0                       # number of cycles access was blocked
system.cpu15.dcache.blocked_cycles::no_targets            0                       # number of cycles access was blocked
system.cpu15.dcache.blocked::no_mshrs               0                       # number of cycles access was blocked
system.cpu15.dcache.blocked::no_targets             0                       # number of cycles access was blocked
system.cpu15.dcache.avg_blocked_cycles::no_mshrs          nan                       # average number of cycles each access was blocked
system.cpu15.dcache.avg_blocked_cycles::no_targets          nan                       # average number of cycles each access was blocked
system.cpu15.dcache.fast_writes                     0                       # number of fast writes performed
system.cpu15.dcache.cache_copies                    0                       # number of cache copies performed
system.cpu15.dcache.writebacks::writebacks          824                       # number of writebacks
system.cpu15.dcache.writebacks::total             824                       # number of writebacks
system.cpu15.dcache.ReadReq_mshr_hits::switch_cpus15.data         5801                       # number of ReadReq MSHR hits
system.cpu15.dcache.ReadReq_mshr_hits::total         5801                       # number of ReadReq MSHR hits
system.cpu15.dcache.WriteReq_mshr_hits::switch_cpus15.data           29                       # number of WriteReq MSHR hits
system.cpu15.dcache.WriteReq_mshr_hits::total           29                       # number of WriteReq MSHR hits
system.cpu15.dcache.demand_mshr_hits::switch_cpus15.data         5830                       # number of demand (read+write) MSHR hits
system.cpu15.dcache.demand_mshr_hits::total         5830                       # number of demand (read+write) MSHR hits
system.cpu15.dcache.overall_mshr_hits::switch_cpus15.data         5830                       # number of overall MSHR hits
system.cpu15.dcache.overall_mshr_hits::total         5830                       # number of overall MSHR hits
system.cpu15.dcache.ReadReq_mshr_misses::switch_cpus15.data         3734                       # number of ReadReq MSHR misses
system.cpu15.dcache.ReadReq_mshr_misses::total         3734                       # number of ReadReq MSHR misses
system.cpu15.dcache.WriteReq_mshr_misses::switch_cpus15.data           11                       # number of WriteReq MSHR misses
system.cpu15.dcache.WriteReq_mshr_misses::total           11                       # number of WriteReq MSHR misses
system.cpu15.dcache.demand_mshr_misses::switch_cpus15.data         3745                       # number of demand (read+write) MSHR misses
system.cpu15.dcache.demand_mshr_misses::total         3745                       # number of demand (read+write) MSHR misses
system.cpu15.dcache.overall_mshr_misses::switch_cpus15.data         3745                       # number of overall MSHR misses
system.cpu15.dcache.overall_mshr_misses::total         3745                       # number of overall MSHR misses
system.cpu15.dcache.ReadReq_mshr_miss_latency::switch_cpus15.data    365179971                       # number of ReadReq MSHR miss cycles
system.cpu15.dcache.ReadReq_mshr_miss_latency::total    365179971                       # number of ReadReq MSHR miss cycles
system.cpu15.dcache.WriteReq_mshr_miss_latency::switch_cpus15.data       812575                       # number of WriteReq MSHR miss cycles
system.cpu15.dcache.WriteReq_mshr_miss_latency::total       812575                       # number of WriteReq MSHR miss cycles
system.cpu15.dcache.demand_mshr_miss_latency::switch_cpus15.data    365992546                       # number of demand (read+write) MSHR miss cycles
system.cpu15.dcache.demand_mshr_miss_latency::total    365992546                       # number of demand (read+write) MSHR miss cycles
system.cpu15.dcache.overall_mshr_miss_latency::switch_cpus15.data    365992546                       # number of overall MSHR miss cycles
system.cpu15.dcache.overall_mshr_miss_latency::total    365992546                       # number of overall MSHR miss cycles
system.cpu15.dcache.ReadReq_mshr_miss_rate::switch_cpus15.data     0.003779                       # mshr miss rate for ReadReq accesses
system.cpu15.dcache.ReadReq_mshr_miss_rate::total     0.003779                       # mshr miss rate for ReadReq accesses
system.cpu15.dcache.WriteReq_mshr_miss_rate::switch_cpus15.data     0.000015                       # mshr miss rate for WriteReq accesses
system.cpu15.dcache.WriteReq_mshr_miss_rate::total     0.000015                       # mshr miss rate for WriteReq accesses
system.cpu15.dcache.demand_mshr_miss_rate::switch_cpus15.data     0.002184                       # mshr miss rate for demand accesses
system.cpu15.dcache.demand_mshr_miss_rate::total     0.002184                       # mshr miss rate for demand accesses
system.cpu15.dcache.overall_mshr_miss_rate::switch_cpus15.data     0.002184                       # mshr miss rate for overall accesses
system.cpu15.dcache.overall_mshr_miss_rate::total     0.002184                       # mshr miss rate for overall accesses
system.cpu15.dcache.ReadReq_avg_mshr_miss_latency::switch_cpus15.data 97798.599625                       # average ReadReq mshr miss latency
system.cpu15.dcache.ReadReq_avg_mshr_miss_latency::total 97798.599625                       # average ReadReq mshr miss latency
system.cpu15.dcache.WriteReq_avg_mshr_miss_latency::switch_cpus15.data 73870.454545                       # average WriteReq mshr miss latency
system.cpu15.dcache.WriteReq_avg_mshr_miss_latency::total 73870.454545                       # average WriteReq mshr miss latency
system.cpu15.dcache.demand_avg_mshr_miss_latency::switch_cpus15.data 97728.316689                       # average overall mshr miss latency
system.cpu15.dcache.demand_avg_mshr_miss_latency::total 97728.316689                       # average overall mshr miss latency
system.cpu15.dcache.overall_avg_mshr_miss_latency::switch_cpus15.data 97728.316689                       # average overall mshr miss latency
system.cpu15.dcache.overall_avg_mshr_miss_latency::total 97728.316689                       # average overall mshr miss latency
system.cpu15.dcache.no_allocate_misses              0                       # Number of misses that were no-allocate

---------- End Simulation Statistics   ----------
