
---------- Begin Simulation Statistics ----------
sim_seconds                                  0.001059                       # Number of seconds simulated
sim_ticks                                  1059202935                       # Number of ticks simulated
final_tick                               400555917333                       # Number of ticks from beginning of simulation (restored from checkpoints and never reset)
sim_freq                                 1000000000000                       # Frequency of simulated ticks
host_inst_rate                                 196459                       # Simulator instruction rate (inst/s)
host_op_rate                                   253325                       # Simulator op (including micro ops) rate (op/s)
host_tick_rate                                  34966                       # Simulator tick rate (ticks/s)
host_mem_usage                               67341376                       # Number of bytes of host memory used
host_seconds                                 30292.42                       # Real time elapsed on the host
sim_insts                                  5951206390                       # Number of instructions simulated
sim_ops                                    7673840068                       # Number of ops (including micro ops) simulated
system.physmem.bytes_read::switch_cpus0.inst         3456                       # Number of bytes read from this memory
system.physmem.bytes_read::switch_cpus0.data        12416                       # Number of bytes read from this memory
system.physmem.bytes_read::switch_cpus1.inst         1920                       # Number of bytes read from this memory
system.physmem.bytes_read::switch_cpus1.data        21120                       # Number of bytes read from this memory
system.physmem.bytes_read::switch_cpus2.inst         1792                       # Number of bytes read from this memory
system.physmem.bytes_read::switch_cpus2.data        24704                       # Number of bytes read from this memory
system.physmem.bytes_read::switch_cpus3.inst         3200                       # Number of bytes read from this memory
system.physmem.bytes_read::switch_cpus3.data        10752                       # Number of bytes read from this memory
system.physmem.bytes_read::switch_cpus4.inst         3456                       # Number of bytes read from this memory
system.physmem.bytes_read::switch_cpus4.data        13056                       # Number of bytes read from this memory
system.physmem.bytes_read::switch_cpus5.inst         3200                       # Number of bytes read from this memory
system.physmem.bytes_read::switch_cpus5.data        63488                       # Number of bytes read from this memory
system.physmem.bytes_read::switch_cpus6.inst         1792                       # Number of bytes read from this memory
system.physmem.bytes_read::switch_cpus6.data        15360                       # Number of bytes read from this memory
system.physmem.bytes_read::switch_cpus7.inst         1792                       # Number of bytes read from this memory
system.physmem.bytes_read::switch_cpus7.data        24448                       # Number of bytes read from this memory
system.physmem.bytes_read::total               205952                       # Number of bytes read from this memory
system.physmem.bytes_inst_read::switch_cpus0.inst         3456                       # Number of instructions bytes read from this memory
system.physmem.bytes_inst_read::switch_cpus1.inst         1920                       # Number of instructions bytes read from this memory
system.physmem.bytes_inst_read::switch_cpus2.inst         1792                       # Number of instructions bytes read from this memory
system.physmem.bytes_inst_read::switch_cpus3.inst         3200                       # Number of instructions bytes read from this memory
system.physmem.bytes_inst_read::switch_cpus4.inst         3456                       # Number of instructions bytes read from this memory
system.physmem.bytes_inst_read::switch_cpus5.inst         3200                       # Number of instructions bytes read from this memory
system.physmem.bytes_inst_read::switch_cpus6.inst         1792                       # Number of instructions bytes read from this memory
system.physmem.bytes_inst_read::switch_cpus7.inst         1792                       # Number of instructions bytes read from this memory
system.physmem.bytes_inst_read::total           20608                       # Number of instructions bytes read from this memory
system.physmem.bytes_written::writebacks        85120                       # Number of bytes written to this memory
system.physmem.bytes_written::total             85120                       # Number of bytes written to this memory
system.physmem.num_reads::switch_cpus0.inst           27                       # Number of read requests responded to by this memory
system.physmem.num_reads::switch_cpus0.data           97                       # Number of read requests responded to by this memory
system.physmem.num_reads::switch_cpus1.inst           15                       # Number of read requests responded to by this memory
system.physmem.num_reads::switch_cpus1.data          165                       # Number of read requests responded to by this memory
system.physmem.num_reads::switch_cpus2.inst           14                       # Number of read requests responded to by this memory
system.physmem.num_reads::switch_cpus2.data          193                       # Number of read requests responded to by this memory
system.physmem.num_reads::switch_cpus3.inst           25                       # Number of read requests responded to by this memory
system.physmem.num_reads::switch_cpus3.data           84                       # Number of read requests responded to by this memory
system.physmem.num_reads::switch_cpus4.inst           27                       # Number of read requests responded to by this memory
system.physmem.num_reads::switch_cpus4.data          102                       # Number of read requests responded to by this memory
system.physmem.num_reads::switch_cpus5.inst           25                       # Number of read requests responded to by this memory
system.physmem.num_reads::switch_cpus5.data          496                       # Number of read requests responded to by this memory
system.physmem.num_reads::switch_cpus6.inst           14                       # Number of read requests responded to by this memory
system.physmem.num_reads::switch_cpus6.data          120                       # Number of read requests responded to by this memory
system.physmem.num_reads::switch_cpus7.inst           14                       # Number of read requests responded to by this memory
system.physmem.num_reads::switch_cpus7.data          191                       # Number of read requests responded to by this memory
system.physmem.num_reads::total                  1609                       # Number of read requests responded to by this memory
system.physmem.num_writes::writebacks             665                       # Number of write requests responded to by this memory
system.physmem.num_writes::functional               0                       # Number of write requests responded to by this memory
system.physmem.num_writes::interrupt                0                       # Number of write requests responded to by this memory
system.physmem.num_writes::switch_cpus0.dtb.walker            0                       # Number of write requests responded to by this memory
system.physmem.num_writes::switch_cpus0.itb.walker            0                       # Number of write requests responded to by this memory
system.physmem.num_writes::switch_cpus0.inst            0                       # Number of write requests responded to by this memory
system.physmem.num_writes::switch_cpus0.data            0                       # Number of write requests responded to by this memory
system.physmem.num_writes::switch_cpus1.dtb.walker            0                       # Number of write requests responded to by this memory
system.physmem.num_writes::switch_cpus1.itb.walker            0                       # Number of write requests responded to by this memory
system.physmem.num_writes::switch_cpus1.inst            0                       # Number of write requests responded to by this memory
system.physmem.num_writes::switch_cpus1.data            0                       # Number of write requests responded to by this memory
system.physmem.num_writes::switch_cpus2.dtb.walker            0                       # Number of write requests responded to by this memory
system.physmem.num_writes::switch_cpus2.itb.walker            0                       # Number of write requests responded to by this memory
system.physmem.num_writes::switch_cpus2.inst            0                       # Number of write requests responded to by this memory
system.physmem.num_writes::switch_cpus2.data            0                       # Number of write requests responded to by this memory
system.physmem.num_writes::switch_cpus3.dtb.walker            0                       # Number of write requests responded to by this memory
system.physmem.num_writes::switch_cpus3.itb.walker            0                       # Number of write requests responded to by this memory
system.physmem.num_writes::switch_cpus3.inst            0                       # Number of write requests responded to by this memory
system.physmem.num_writes::switch_cpus3.data            0                       # Number of write requests responded to by this memory
system.physmem.num_writes::switch_cpus4.dtb.walker            0                       # Number of write requests responded to by this memory
system.physmem.num_writes::switch_cpus4.itb.walker            0                       # Number of write requests responded to by this memory
system.physmem.num_writes::switch_cpus4.inst            0                       # Number of write requests responded to by this memory
system.physmem.num_writes::switch_cpus4.data            0                       # Number of write requests responded to by this memory
system.physmem.num_writes::switch_cpus5.dtb.walker            0                       # Number of write requests responded to by this memory
system.physmem.num_writes::switch_cpus5.itb.walker            0                       # Number of write requests responded to by this memory
system.physmem.num_writes::switch_cpus5.inst            0                       # Number of write requests responded to by this memory
system.physmem.num_writes::switch_cpus5.data            0                       # Number of write requests responded to by this memory
system.physmem.num_writes::switch_cpus6.dtb.walker            0                       # Number of write requests responded to by this memory
system.physmem.num_writes::switch_cpus6.itb.walker            0                       # Number of write requests responded to by this memory
system.physmem.num_writes::switch_cpus6.inst            0                       # Number of write requests responded to by this memory
system.physmem.num_writes::switch_cpus6.data            0                       # Number of write requests responded to by this memory
system.physmem.num_writes::switch_cpus7.dtb.walker            0                       # Number of write requests responded to by this memory
system.physmem.num_writes::switch_cpus7.itb.walker            0                       # Number of write requests responded to by this memory
system.physmem.num_writes::switch_cpus7.inst            0                       # Number of write requests responded to by this memory
system.physmem.num_writes::switch_cpus7.data            0                       # Number of write requests responded to by this memory
system.physmem.num_writes::cpu0.dtb.walker            0                       # Number of write requests responded to by this memory
system.physmem.num_writes::cpu0.itb.walker            0                       # Number of write requests responded to by this memory
system.physmem.num_writes::cpu0.inst                0                       # Number of write requests responded to by this memory
system.physmem.num_writes::cpu0.data                0                       # Number of write requests responded to by this memory
system.physmem.num_writes::cpu1.dtb.walker            0                       # Number of write requests responded to by this memory
system.physmem.num_writes::cpu1.itb.walker            0                       # Number of write requests responded to by this memory
system.physmem.num_writes::cpu1.inst                0                       # Number of write requests responded to by this memory
system.physmem.num_writes::cpu1.data                0                       # Number of write requests responded to by this memory
system.physmem.num_writes::cpu2.dtb.walker            0                       # Number of write requests responded to by this memory
system.physmem.num_writes::cpu2.itb.walker            0                       # Number of write requests responded to by this memory
system.physmem.num_writes::cpu2.inst                0                       # Number of write requests responded to by this memory
system.physmem.num_writes::cpu2.data                0                       # Number of write requests responded to by this memory
system.physmem.num_writes::cpu3.dtb.walker            0                       # Number of write requests responded to by this memory
system.physmem.num_writes::cpu3.itb.walker            0                       # Number of write requests responded to by this memory
system.physmem.num_writes::cpu3.inst                0                       # Number of write requests responded to by this memory
system.physmem.num_writes::cpu3.data                0                       # Number of write requests responded to by this memory
system.physmem.num_writes::cpu4.dtb.walker            0                       # Number of write requests responded to by this memory
system.physmem.num_writes::cpu4.itb.walker            0                       # Number of write requests responded to by this memory
system.physmem.num_writes::cpu4.inst                0                       # Number of write requests responded to by this memory
system.physmem.num_writes::cpu4.data                0                       # Number of write requests responded to by this memory
system.physmem.num_writes::cpu5.dtb.walker            0                       # Number of write requests responded to by this memory
system.physmem.num_writes::cpu5.itb.walker            0                       # Number of write requests responded to by this memory
system.physmem.num_writes::cpu5.inst                0                       # Number of write requests responded to by this memory
system.physmem.num_writes::cpu5.data                0                       # Number of write requests responded to by this memory
system.physmem.num_writes::cpu6.dtb.walker            0                       # Number of write requests responded to by this memory
system.physmem.num_writes::cpu6.itb.walker            0                       # Number of write requests responded to by this memory
system.physmem.num_writes::cpu6.inst                0                       # Number of write requests responded to by this memory
system.physmem.num_writes::cpu6.data                0                       # Number of write requests responded to by this memory
system.physmem.num_writes::cpu7.dtb.walker            0                       # Number of write requests responded to by this memory
system.physmem.num_writes::cpu7.itb.walker            0                       # Number of write requests responded to by this memory
system.physmem.num_writes::cpu7.inst                0                       # Number of write requests responded to by this memory
system.physmem.num_writes::cpu7.data                0                       # Number of write requests responded to by this memory
system.physmem.num_writes::total                  665                       # Number of write requests responded to by this memory
system.physmem.bw_read::switch_cpus0.inst      3262831                       # Total read bandwidth from this memory (bytes/s)
system.physmem.bw_read::switch_cpus0.data     11722022                       # Total read bandwidth from this memory (bytes/s)
system.physmem.bw_read::switch_cpus1.inst      1812684                       # Total read bandwidth from this memory (bytes/s)
system.physmem.bw_read::switch_cpus1.data     19939522                       # Total read bandwidth from this memory (bytes/s)
system.physmem.bw_read::switch_cpus2.inst      1691838                       # Total read bandwidth from this memory (bytes/s)
system.physmem.bw_read::switch_cpus2.data     23323198                       # Total read bandwidth from this memory (bytes/s)
system.physmem.bw_read::switch_cpus3.inst      3021140                       # Total read bandwidth from this memory (bytes/s)
system.physmem.bw_read::switch_cpus3.data     10151029                       # Total read bandwidth from this memory (bytes/s)
system.physmem.bw_read::switch_cpus4.inst      3262831                       # Total read bandwidth from this memory (bytes/s)
system.physmem.bw_read::switch_cpus4.data     12326250                       # Total read bandwidth from this memory (bytes/s)
system.physmem.bw_read::switch_cpus5.inst      3021140                       # Total read bandwidth from this memory (bytes/s)
system.physmem.bw_read::switch_cpus5.data     59939411                       # Total read bandwidth from this memory (bytes/s)
system.physmem.bw_read::switch_cpus6.inst      1691838                       # Total read bandwidth from this memory (bytes/s)
system.physmem.bw_read::switch_cpus6.data     14501470                       # Total read bandwidth from this memory (bytes/s)
system.physmem.bw_read::switch_cpus7.inst      1691838                       # Total read bandwidth from this memory (bytes/s)
system.physmem.bw_read::switch_cpus7.data     23081507                       # Total read bandwidth from this memory (bytes/s)
system.physmem.bw_read::total               194440549                       # Total read bandwidth from this memory (bytes/s)
system.physmem.bw_inst_read::switch_cpus0.inst      3262831                       # Instruction read bandwidth from this memory (bytes/s)
system.physmem.bw_inst_read::switch_cpus1.inst      1812684                       # Instruction read bandwidth from this memory (bytes/s)
system.physmem.bw_inst_read::switch_cpus2.inst      1691838                       # Instruction read bandwidth from this memory (bytes/s)
system.physmem.bw_inst_read::switch_cpus3.inst      3021140                       # Instruction read bandwidth from this memory (bytes/s)
system.physmem.bw_inst_read::switch_cpus4.inst      3262831                       # Instruction read bandwidth from this memory (bytes/s)
system.physmem.bw_inst_read::switch_cpus5.inst      3021140                       # Instruction read bandwidth from this memory (bytes/s)
system.physmem.bw_inst_read::switch_cpus6.inst      1691838                       # Instruction read bandwidth from this memory (bytes/s)
system.physmem.bw_inst_read::switch_cpus7.inst      1691838                       # Instruction read bandwidth from this memory (bytes/s)
system.physmem.bw_inst_read::total           19456139                       # Instruction read bandwidth from this memory (bytes/s)
system.physmem.bw_write::writebacks          80362315                       # Write bandwidth from this memory (bytes/s)
system.physmem.bw_write::total               80362315                       # Write bandwidth from this memory (bytes/s)
system.physmem.bw_total::writebacks          80362315                       # Total bandwidth to/from this memory (bytes/s)
system.physmem.bw_total::switch_cpus0.inst      3262831                       # Total bandwidth to/from this memory (bytes/s)
system.physmem.bw_total::switch_cpus0.data     11722022                       # Total bandwidth to/from this memory (bytes/s)
system.physmem.bw_total::switch_cpus1.inst      1812684                       # Total bandwidth to/from this memory (bytes/s)
system.physmem.bw_total::switch_cpus1.data     19939522                       # Total bandwidth to/from this memory (bytes/s)
system.physmem.bw_total::switch_cpus2.inst      1691838                       # Total bandwidth to/from this memory (bytes/s)
system.physmem.bw_total::switch_cpus2.data     23323198                       # Total bandwidth to/from this memory (bytes/s)
system.physmem.bw_total::switch_cpus3.inst      3021140                       # Total bandwidth to/from this memory (bytes/s)
system.physmem.bw_total::switch_cpus3.data     10151029                       # Total bandwidth to/from this memory (bytes/s)
system.physmem.bw_total::switch_cpus4.inst      3262831                       # Total bandwidth to/from this memory (bytes/s)
system.physmem.bw_total::switch_cpus4.data     12326250                       # Total bandwidth to/from this memory (bytes/s)
system.physmem.bw_total::switch_cpus5.inst      3021140                       # Total bandwidth to/from this memory (bytes/s)
system.physmem.bw_total::switch_cpus5.data     59939411                       # Total bandwidth to/from this memory (bytes/s)
system.physmem.bw_total::switch_cpus6.inst      1691838                       # Total bandwidth to/from this memory (bytes/s)
system.physmem.bw_total::switch_cpus6.data     14501470                       # Total bandwidth to/from this memory (bytes/s)
system.physmem.bw_total::switch_cpus7.inst      1691838                       # Total bandwidth to/from this memory (bytes/s)
system.physmem.bw_total::switch_cpus7.data     23081507                       # Total bandwidth to/from this memory (bytes/s)
system.physmem.bw_total::total              274802864                       # Total bandwidth to/from this memory (bytes/s)
system.switch_cpus0.dtb.inst_hits                   0                       # ITB inst hits
system.switch_cpus0.dtb.inst_misses                 0                       # ITB inst misses
system.switch_cpus0.dtb.read_hits                   0                       # DTB read hits
system.switch_cpus0.dtb.read_misses                 0                       # DTB read misses
system.switch_cpus0.dtb.write_hits                  0                       # DTB write hits
system.switch_cpus0.dtb.write_misses                0                       # DTB write misses
system.switch_cpus0.dtb.flush_tlb                   0                       # Number of times complete TLB was flushed
system.switch_cpus0.dtb.flush_tlb_mva               0                       # Number of times TLB was flushed by MVA
system.switch_cpus0.dtb.flush_tlb_mva_asid            0                       # Number of times TLB was flushed by MVA & ASID
system.switch_cpus0.dtb.flush_tlb_asid              0                       # Number of times TLB was flushed by ASID
system.switch_cpus0.dtb.flush_entries               0                       # Number of entries that have been flushed from TLB
system.switch_cpus0.dtb.align_faults                0                       # Number of TLB faults due to alignment restrictions
system.switch_cpus0.dtb.prefetch_faults             0                       # Number of TLB faults due to prefetch
system.switch_cpus0.dtb.domain_faults               0                       # Number of TLB faults due to domain restrictions
system.switch_cpus0.dtb.perms_faults                0                       # Number of TLB faults due to permissions restrictions
system.switch_cpus0.dtb.read_accesses               0                       # DTB read accesses
system.switch_cpus0.dtb.write_accesses              0                       # DTB write accesses
system.switch_cpus0.dtb.inst_accesses               0                       # ITB inst accesses
system.switch_cpus0.dtb.hits                        0                       # DTB hits
system.switch_cpus0.dtb.misses                      0                       # DTB misses
system.switch_cpus0.dtb.accesses                    0                       # DTB accesses
system.switch_cpus0.itb.inst_hits                   0                       # ITB inst hits
system.switch_cpus0.itb.inst_misses                 0                       # ITB inst misses
system.switch_cpus0.itb.read_hits                   0                       # DTB read hits
system.switch_cpus0.itb.read_misses                 0                       # DTB read misses
system.switch_cpus0.itb.write_hits                  0                       # DTB write hits
system.switch_cpus0.itb.write_misses                0                       # DTB write misses
system.switch_cpus0.itb.flush_tlb                   0                       # Number of times complete TLB was flushed
system.switch_cpus0.itb.flush_tlb_mva               0                       # Number of times TLB was flushed by MVA
system.switch_cpus0.itb.flush_tlb_mva_asid            0                       # Number of times TLB was flushed by MVA & ASID
system.switch_cpus0.itb.flush_tlb_asid              0                       # Number of times TLB was flushed by ASID
system.switch_cpus0.itb.flush_entries               0                       # Number of entries that have been flushed from TLB
system.switch_cpus0.itb.align_faults                0                       # Number of TLB faults due to alignment restrictions
system.switch_cpus0.itb.prefetch_faults             0                       # Number of TLB faults due to prefetch
system.switch_cpus0.itb.domain_faults               0                       # Number of TLB faults due to domain restrictions
system.switch_cpus0.itb.perms_faults                0                       # Number of TLB faults due to permissions restrictions
system.switch_cpus0.itb.read_accesses               0                       # DTB read accesses
system.switch_cpus0.itb.write_accesses              0                       # DTB write accesses
system.switch_cpus0.itb.inst_accesses               0                       # ITB inst accesses
system.switch_cpus0.itb.hits                        0                       # DTB hits
system.switch_cpus0.itb.misses                      0                       # DTB misses
system.switch_cpus0.itb.accesses                    0                       # DTB accesses
system.cpu0.workload.num_syscalls                   1                       # Number of system calls
system.switch_cpus0.numCycles                 2540056                       # number of cpu cycles simulated
system.switch_cpus0.numWorkItemsStarted             0                       # number of work items this cpu started
system.switch_cpus0.numWorkItemsCompleted            0                       # number of work items this cpu completed
system.switch_cpus0.BPredUnit.lookups          210491                       # Number of BP lookups
system.switch_cpus0.BPredUnit.condPredicted       172384                       # Number of conditional branches predicted
system.switch_cpus0.BPredUnit.condIncorrect        22219                       # Number of conditional branches incorrect
system.switch_cpus0.BPredUnit.BTBLookups        86616                       # Number of BTB lookups
system.switch_cpus0.BPredUnit.BTBHits           80865                       # Number of BTB hits
system.switch_cpus0.BPredUnit.BTBCorrect            0                       # Number of correct BTB predictions (this stat may not work properly.
system.switch_cpus0.BPredUnit.usedRAS           21271                       # Number of times the RAS was used to get a target.
system.switch_cpus0.BPredUnit.RASInCorrect         1021                       # Number of incorrect RAS predictions.
system.switch_cpus0.fetch.icacheStallCycles      2018170                       # Number of cycles fetch is stalled on an Icache miss
system.switch_cpus0.fetch.Insts               1177627                       # Number of instructions fetch has processed
system.switch_cpus0.fetch.Branches             210491                       # Number of branches that fetch encountered
system.switch_cpus0.fetch.predictedBranches       102136                       # Number of branches that fetch has predicted taken
system.switch_cpus0.fetch.Cycles               244819                       # Number of cycles fetch has run and was not squashing or blocked
system.switch_cpus0.fetch.SquashCycles          61457                       # Number of cycles fetch has spent squashing
system.switch_cpus0.fetch.BlockedCycles         40809                       # Number of cycles fetch has spent blocked
system.switch_cpus0.fetch.CacheLines           124972                       # Number of cache lines fetched
system.switch_cpus0.fetch.IcacheSquashes        22069                       # Number of outstanding Icache misses that were squashed
system.switch_cpus0.fetch.rateDist::samples      2342758                       # Number of instructions fetched each cycle (Total)
system.switch_cpus0.fetch.rateDist::mean     0.617747                       # Number of instructions fetched each cycle (Total)
system.switch_cpus0.fetch.rateDist::stdev     1.965316                       # Number of instructions fetched each cycle (Total)
system.switch_cpus0.fetch.rateDist::underflows            0      0.00%      0.00% # Number of instructions fetched each cycle (Total)
system.switch_cpus0.fetch.rateDist::0         2097939     89.55%     89.55% # Number of instructions fetched each cycle (Total)
system.switch_cpus0.fetch.rateDist::1           11369      0.49%     90.04% # Number of instructions fetched each cycle (Total)
system.switch_cpus0.fetch.rateDist::2           17964      0.77%     90.80% # Number of instructions fetched each cycle (Total)
system.switch_cpus0.fetch.rateDist::3           23805      1.02%     91.82% # Number of instructions fetched each cycle (Total)
system.switch_cpus0.fetch.rateDist::4           25101      1.07%     92.89% # Number of instructions fetched each cycle (Total)
system.switch_cpus0.fetch.rateDist::5           21224      0.91%     93.80% # Number of instructions fetched each cycle (Total)
system.switch_cpus0.fetch.rateDist::6           11584      0.49%     94.29% # Number of instructions fetched each cycle (Total)
system.switch_cpus0.fetch.rateDist::7           17685      0.75%     95.04% # Number of instructions fetched each cycle (Total)
system.switch_cpus0.fetch.rateDist::8          116087      4.96%    100.00% # Number of instructions fetched each cycle (Total)
system.switch_cpus0.fetch.rateDist::overflows            0      0.00%    100.00% # Number of instructions fetched each cycle (Total)
system.switch_cpus0.fetch.rateDist::min_value            0                       # Number of instructions fetched each cycle (Total)
system.switch_cpus0.fetch.rateDist::max_value            8                       # Number of instructions fetched each cycle (Total)
system.switch_cpus0.fetch.rateDist::total      2342758                       # Number of instructions fetched each cycle (Total)
system.switch_cpus0.fetch.branchRate         0.082869                       # Number of branch fetches per cycle
system.switch_cpus0.fetch.rate               0.463622                       # Number of inst fetches per cycle
system.switch_cpus0.decode.IdleCycles         1997862                       # Number of cycles decode is idle
system.switch_cpus0.decode.BlockedCycles        61577                       # Number of cycles decode is blocked
system.switch_cpus0.decode.RunCycles           244180                       # Number of cycles decode is running
system.switch_cpus0.decode.UnblockCycles          386                       # Number of cycles decode is unblocking
system.switch_cpus0.decode.SquashCycles         38751                       # Number of cycles decode is squashing
system.switch_cpus0.decode.BranchResolved        34305                       # Number of times decode resolved a branch
system.switch_cpus0.decode.BranchMispred          209                       # Number of times decode detected a branch misprediction
system.switch_cpus0.decode.DecodedInsts       1443872                       # Number of instructions handled by decode
system.switch_cpus0.decode.SquashedInsts         1257                       # Number of squashed instructions handled by decode
system.switch_cpus0.rename.SquashCycles         38751                       # Number of cycles rename is squashing
system.switch_cpus0.rename.IdleCycles         2003852                       # Number of cycles rename is idle
system.switch_cpus0.rename.BlockCycles          12492                       # Number of cycles rename is blocking
system.switch_cpus0.rename.serializeStallCycles        36238                       # count of cycles rename stalled for serializing inst
system.switch_cpus0.rename.RunCycles           238580                       # Number of cycles rename is running
system.switch_cpus0.rename.UnblockCycles        12841                       # Number of cycles rename is unblocking
system.switch_cpus0.rename.RenamedInsts       1442238                       # Number of instructions processed by rename
system.switch_cpus0.rename.ROBFullEvents            6                       # Number of times rename has blocked due to ROB full
system.switch_cpus0.rename.IQFullEvents          1562                       # Number of times rename has blocked due to IQ full
system.switch_cpus0.rename.LSQFullEvents         5716                       # Number of times rename has blocked due to LSQ full
system.switch_cpus0.rename.RenamedOperands      2013085                       # Number of destination operands rename has renamed
system.switch_cpus0.rename.RenameLookups      6706405                       # Number of register rename lookups that rename has made
system.switch_cpus0.rename.int_rename_lookups      6706405                       # Number of integer rename lookups
system.switch_cpus0.rename.CommittedMaps      1715223                       # Number of HB maps that are committed
system.switch_cpus0.rename.UndoneMaps          297851                       # Number of HB maps that are undone due to squashing
system.switch_cpus0.rename.serializingInsts          347                       # count of serializing insts renamed
system.switch_cpus0.rename.tempSerializingInsts          178                       # count of temporary serializing insts renamed
system.switch_cpus0.rename.skidInsts            40553                       # count of insts added to the skid buffer
system.switch_cpus0.memDep0.insertedLoads       136196                       # Number of loads inserted to the mem dependence unit.
system.switch_cpus0.memDep0.insertedStores        72213                       # Number of stores inserted to the mem dependence unit.
system.switch_cpus0.memDep0.conflictingLoads          798                       # Number of conflicting loads.
system.switch_cpus0.memDep0.conflictingStores        27279                       # Number of conflicting stores.
system.switch_cpus0.iq.iqInstsAdded           1438839                       # Number of instructions added to the IQ (excludes non-spec)
system.switch_cpus0.iq.iqNonSpecInstsAdded          349                       # Number of non-speculative instructions added to the IQ
system.switch_cpus0.iq.iqInstsIssued          1356928                       # Number of instructions issued
system.switch_cpus0.iq.iqSquashedInstsIssued          341                       # Number of squashed instructions issued
system.switch_cpus0.iq.iqSquashedInstsExamined       176019                       # Number of squashed instructions iterated over during squash; mainly for profiling
system.switch_cpus0.iq.iqSquashedOperandsExamined       429042                       # Number of squashed operands that are examined and possibly removed from graph
system.switch_cpus0.iq.iqSquashedNonSpecRemoved            8                       # Number of squashed non-spec instructions that were removed
system.switch_cpus0.iq.issued_per_cycle::samples      2342758                       # Number of insts issued each cycle
system.switch_cpus0.iq.issued_per_cycle::mean     0.579201                       # Number of insts issued each cycle
system.switch_cpus0.iq.issued_per_cycle::stdev     1.266636                       # Number of insts issued each cycle
system.switch_cpus0.iq.issued_per_cycle::underflows            0      0.00%      0.00% # Number of insts issued each cycle
system.switch_cpus0.iq.issued_per_cycle::0      1761156     75.17%     75.17% # Number of insts issued each cycle
system.switch_cpus0.iq.issued_per_cycle::1       245672     10.49%     85.66% # Number of insts issued each cycle
system.switch_cpus0.iq.issued_per_cycle::2       122497      5.23%     90.89% # Number of insts issued each cycle
system.switch_cpus0.iq.issued_per_cycle::3        86346      3.69%     94.58% # Number of insts issued each cycle
system.switch_cpus0.iq.issued_per_cycle::4        69205      2.95%     97.53% # Number of insts issued each cycle
system.switch_cpus0.iq.issued_per_cycle::5        28887      1.23%     98.76% # Number of insts issued each cycle
system.switch_cpus0.iq.issued_per_cycle::6        18265      0.78%     99.54% # Number of insts issued each cycle
system.switch_cpus0.iq.issued_per_cycle::7         9461      0.40%     99.95% # Number of insts issued each cycle
system.switch_cpus0.iq.issued_per_cycle::8         1269      0.05%    100.00% # Number of insts issued each cycle
system.switch_cpus0.iq.issued_per_cycle::overflows            0      0.00%    100.00% # Number of insts issued each cycle
system.switch_cpus0.iq.issued_per_cycle::min_value            0                       # Number of insts issued each cycle
system.switch_cpus0.iq.issued_per_cycle::max_value            8                       # Number of insts issued each cycle
system.switch_cpus0.iq.issued_per_cycle::total      2342758                       # Number of insts issued each cycle
system.switch_cpus0.iq.fu_full::No_OpClass            0      0.00%      0.00% # attempts to use FU when none available
system.switch_cpus0.iq.fu_full::IntAlu            311     12.57%     12.57% # attempts to use FU when none available
system.switch_cpus0.iq.fu_full::IntMult             0      0.00%     12.57% # attempts to use FU when none available
system.switch_cpus0.iq.fu_full::IntDiv              0      0.00%     12.57% # attempts to use FU when none available
system.switch_cpus0.iq.fu_full::FloatAdd            0      0.00%     12.57% # attempts to use FU when none available
system.switch_cpus0.iq.fu_full::FloatCmp            0      0.00%     12.57% # attempts to use FU when none available
system.switch_cpus0.iq.fu_full::FloatCvt            0      0.00%     12.57% # attempts to use FU when none available
system.switch_cpus0.iq.fu_full::FloatMult            0      0.00%     12.57% # attempts to use FU when none available
system.switch_cpus0.iq.fu_full::FloatDiv            0      0.00%     12.57% # attempts to use FU when none available
system.switch_cpus0.iq.fu_full::FloatSqrt            0      0.00%     12.57% # attempts to use FU when none available
system.switch_cpus0.iq.fu_full::SimdAdd             0      0.00%     12.57% # attempts to use FU when none available
system.switch_cpus0.iq.fu_full::SimdAddAcc            0      0.00%     12.57% # attempts to use FU when none available
system.switch_cpus0.iq.fu_full::SimdAlu             0      0.00%     12.57% # attempts to use FU when none available
system.switch_cpus0.iq.fu_full::SimdCmp             0      0.00%     12.57% # attempts to use FU when none available
system.switch_cpus0.iq.fu_full::SimdCvt             0      0.00%     12.57% # attempts to use FU when none available
system.switch_cpus0.iq.fu_full::SimdMisc            0      0.00%     12.57% # attempts to use FU when none available
system.switch_cpus0.iq.fu_full::SimdMult            0      0.00%     12.57% # attempts to use FU when none available
system.switch_cpus0.iq.fu_full::SimdMultAcc            0      0.00%     12.57% # attempts to use FU when none available
system.switch_cpus0.iq.fu_full::SimdShift            0      0.00%     12.57% # attempts to use FU when none available
system.switch_cpus0.iq.fu_full::SimdShiftAcc            0      0.00%     12.57% # attempts to use FU when none available
system.switch_cpus0.iq.fu_full::SimdSqrt            0      0.00%     12.57% # attempts to use FU when none available
system.switch_cpus0.iq.fu_full::SimdFloatAdd            0      0.00%     12.57% # attempts to use FU when none available
system.switch_cpus0.iq.fu_full::SimdFloatAlu            0      0.00%     12.57% # attempts to use FU when none available
system.switch_cpus0.iq.fu_full::SimdFloatCmp            0      0.00%     12.57% # attempts to use FU when none available
system.switch_cpus0.iq.fu_full::SimdFloatCvt            0      0.00%     12.57% # attempts to use FU when none available
system.switch_cpus0.iq.fu_full::SimdFloatDiv            0      0.00%     12.57% # attempts to use FU when none available
system.switch_cpus0.iq.fu_full::SimdFloatMisc            0      0.00%     12.57% # attempts to use FU when none available
system.switch_cpus0.iq.fu_full::SimdFloatMult            0      0.00%     12.57% # attempts to use FU when none available
system.switch_cpus0.iq.fu_full::SimdFloatMultAcc            0      0.00%     12.57% # attempts to use FU when none available
system.switch_cpus0.iq.fu_full::SimdFloatSqrt            0      0.00%     12.57% # attempts to use FU when none available
system.switch_cpus0.iq.fu_full::MemRead           927     37.45%     50.02% # attempts to use FU when none available
system.switch_cpus0.iq.fu_full::MemWrite         1237     49.98%    100.00% # attempts to use FU when none available
system.switch_cpus0.iq.fu_full::IprAccess            0      0.00%    100.00% # attempts to use FU when none available
system.switch_cpus0.iq.fu_full::InstPrefetch            0      0.00%    100.00% # attempts to use FU when none available
system.switch_cpus0.iq.FU_type_0::No_OpClass            0      0.00%      0.00% # Type of FU issued
system.switch_cpus0.iq.FU_type_0::IntAlu      1141451     84.12%     84.12% # Type of FU issued
system.switch_cpus0.iq.FU_type_0::IntMult        20212      1.49%     85.61% # Type of FU issued
system.switch_cpus0.iq.FU_type_0::IntDiv            0      0.00%     85.61% # Type of FU issued
system.switch_cpus0.iq.FU_type_0::FloatAdd            0      0.00%     85.61% # Type of FU issued
system.switch_cpus0.iq.FU_type_0::FloatCmp            0      0.00%     85.61% # Type of FU issued
system.switch_cpus0.iq.FU_type_0::FloatCvt            0      0.00%     85.61% # Type of FU issued
system.switch_cpus0.iq.FU_type_0::FloatMult            0      0.00%     85.61% # Type of FU issued
system.switch_cpus0.iq.FU_type_0::FloatDiv            0      0.00%     85.61% # Type of FU issued
system.switch_cpus0.iq.FU_type_0::FloatSqrt            0      0.00%     85.61% # Type of FU issued
system.switch_cpus0.iq.FU_type_0::SimdAdd            0      0.00%     85.61% # Type of FU issued
system.switch_cpus0.iq.FU_type_0::SimdAddAcc            0      0.00%     85.61% # Type of FU issued
system.switch_cpus0.iq.FU_type_0::SimdAlu            0      0.00%     85.61% # Type of FU issued
system.switch_cpus0.iq.FU_type_0::SimdCmp            0      0.00%     85.61% # Type of FU issued
system.switch_cpus0.iq.FU_type_0::SimdCvt            0      0.00%     85.61% # Type of FU issued
system.switch_cpus0.iq.FU_type_0::SimdMisc            0      0.00%     85.61% # Type of FU issued
system.switch_cpus0.iq.FU_type_0::SimdMult            0      0.00%     85.61% # Type of FU issued
system.switch_cpus0.iq.FU_type_0::SimdMultAcc            0      0.00%     85.61% # Type of FU issued
system.switch_cpus0.iq.FU_type_0::SimdShift            0      0.00%     85.61% # Type of FU issued
system.switch_cpus0.iq.FU_type_0::SimdShiftAcc            0      0.00%     85.61% # Type of FU issued
system.switch_cpus0.iq.FU_type_0::SimdSqrt            0      0.00%     85.61% # Type of FU issued
system.switch_cpus0.iq.FU_type_0::SimdFloatAdd            0      0.00%     85.61% # Type of FU issued
system.switch_cpus0.iq.FU_type_0::SimdFloatAlu            0      0.00%     85.61% # Type of FU issued
system.switch_cpus0.iq.FU_type_0::SimdFloatCmp            0      0.00%     85.61% # Type of FU issued
system.switch_cpus0.iq.FU_type_0::SimdFloatCvt            0      0.00%     85.61% # Type of FU issued
system.switch_cpus0.iq.FU_type_0::SimdFloatDiv            0      0.00%     85.61% # Type of FU issued
system.switch_cpus0.iq.FU_type_0::SimdFloatMisc          168      0.01%     85.62% # Type of FU issued
system.switch_cpus0.iq.FU_type_0::SimdFloatMult            0      0.00%     85.62% # Type of FU issued
system.switch_cpus0.iq.FU_type_0::SimdFloatMultAcc            0      0.00%     85.62% # Type of FU issued
system.switch_cpus0.iq.FU_type_0::SimdFloatSqrt            0      0.00%     85.62% # Type of FU issued
system.switch_cpus0.iq.FU_type_0::MemRead       123236      9.08%     94.70% # Type of FU issued
system.switch_cpus0.iq.FU_type_0::MemWrite        71861      5.30%    100.00% # Type of FU issued
system.switch_cpus0.iq.FU_type_0::IprAccess            0      0.00%    100.00% # Type of FU issued
system.switch_cpus0.iq.FU_type_0::InstPrefetch            0      0.00%    100.00% # Type of FU issued
system.switch_cpus0.iq.FU_type_0::total       1356928                       # Type of FU issued
system.switch_cpus0.iq.rate                  0.534212                       # Inst issue rate
system.switch_cpus0.iq.fu_busy_cnt               2475                       # FU busy when requested
system.switch_cpus0.iq.fu_busy_rate          0.001824                       # FU busy rate (busy events/executed inst)
system.switch_cpus0.iq.int_inst_queue_reads      5059429                       # Number of integer instruction queue reads
system.switch_cpus0.iq.int_inst_queue_writes      1615221                       # Number of integer instruction queue writes
system.switch_cpus0.iq.int_inst_queue_wakeup_accesses      1334482                       # Number of integer instruction queue wakeup accesses
system.switch_cpus0.iq.fp_inst_queue_reads            0                       # Number of floating instruction queue reads
system.switch_cpus0.iq.fp_inst_queue_writes            0                       # Number of floating instruction queue writes
system.switch_cpus0.iq.fp_inst_queue_wakeup_accesses            0                       # Number of floating instruction queue wakeup accesses
system.switch_cpus0.iq.int_alu_accesses       1359403                       # Number of integer alu accesses
system.switch_cpus0.iq.fp_alu_accesses              0                       # Number of floating point alu accesses
system.switch_cpus0.iew.lsq.thread0.forwLoads         2793                       # Number of loads that had data forwarded from stores
system.switch_cpus0.iew.lsq.thread0.invAddrLoads            0                       # Number of loads ignored due to an invalid address
system.switch_cpus0.iew.lsq.thread0.squashedLoads        24745                       # Number of loads squashed
system.switch_cpus0.iew.lsq.thread0.ignoredResponses            0                       # Number of memory responses ignored because the instruction is squashed
system.switch_cpus0.iew.lsq.thread0.memOrderViolation           15                       # Number of memory ordering violations
system.switch_cpus0.iew.lsq.thread0.squashedStores         1317                       # Number of stores squashed
system.switch_cpus0.iew.lsq.thread0.invAddrSwpfs            0                       # Number of software prefetches ignored due to an invalid address
system.switch_cpus0.iew.lsq.thread0.blockedLoads            0                       # Number of blocked loads due to partial load-store forwarding
system.switch_cpus0.iew.lsq.thread0.rescheduledLoads            0                       # Number of loads that were rescheduled
system.switch_cpus0.iew.lsq.thread0.cacheBlocked            0                       # Number of times an access to memory failed due to the cache being blocked
system.switch_cpus0.iew.iewIdleCycles               0                       # Number of cycles IEW is idle
system.switch_cpus0.iew.iewSquashCycles         38751                       # Number of cycles IEW is squashing
system.switch_cpus0.iew.iewBlockCycles           9709                       # Number of cycles IEW is blocking
system.switch_cpus0.iew.iewUnblockCycles         1152                       # Number of cycles IEW is unblocking
system.switch_cpus0.iew.iewDispatchedInsts      1439194                       # Number of instructions dispatched to IQ
system.switch_cpus0.iew.iewDispSquashedInsts          644                       # Number of squashed instructions skipped by dispatch
system.switch_cpus0.iew.iewDispLoadInsts       136196                       # Number of dispatched load instructions
system.switch_cpus0.iew.iewDispStoreInsts        72213                       # Number of dispatched store instructions
system.switch_cpus0.iew.iewDispNonSpecInsts          179                       # Number of dispatched non-speculative instructions
system.switch_cpus0.iew.iewIQFullEvents           981                       # Number of times the IQ has become full, causing a stall
system.switch_cpus0.iew.iewLSQFullEvents            0                       # Number of times the LSQ has become full, causing a stall
system.switch_cpus0.iew.memOrderViolationEvents           15                       # Number of memory order violations
system.switch_cpus0.iew.predictedTakenIncorrect        12258                       # Number of branches that were predicted taken incorrectly
system.switch_cpus0.iew.predictedNotTakenIncorrect        12995                       # Number of branches that were predicted not taken incorrectly
system.switch_cpus0.iew.branchMispredicts        25253                       # Number of branch mispredicts detected at execute
system.switch_cpus0.iew.iewExecutedInsts      1336696                       # Number of executed instructions
system.switch_cpus0.iew.iewExecLoadInsts       115688                       # Number of load instructions executed
system.switch_cpus0.iew.iewExecSquashedInsts        20231                       # Number of squashed instructions skipped in execute
system.switch_cpus0.iew.exec_swp                    0                       # number of swp insts executed
system.switch_cpus0.iew.exec_nop                    6                       # number of nop insts executed
system.switch_cpus0.iew.exec_refs              187533                       # number of memory reference insts executed
system.switch_cpus0.iew.exec_branches          189511                       # Number of branches executed
system.switch_cpus0.iew.exec_stores             71845                       # Number of stores executed
system.switch_cpus0.iew.exec_rate            0.526247                       # Inst execution rate
system.switch_cpus0.iew.wb_sent               1334573                       # cumulative count of insts sent to commit
system.switch_cpus0.iew.wb_count              1334482                       # cumulative count of insts written-back
system.switch_cpus0.iew.wb_producers           767366                       # num instructions producing a value
system.switch_cpus0.iew.wb_consumers          2068364                       # num instructions consuming a value
system.switch_cpus0.iew.wb_penalized                0                       # number of instrctions required to write to 'other' IQ
system.switch_cpus0.iew.wb_rate              0.525375                       # insts written-back per cycle
system.switch_cpus0.iew.wb_fanout            0.371001                       # average fanout of values written-back
system.switch_cpus0.iew.wb_penalized_rate            0                       # fraction of instructions written-back that wrote to 'other' IQ
system.switch_cpus0.commit.commitCommittedInsts      1000000                       # The number of committed instructions
system.switch_cpus0.commit.commitCommittedOps      1230442                       # The number of committed instructions
system.switch_cpus0.commit.commitSquashedInsts       208752                       # The number of squashed insts skipped by commit
system.switch_cpus0.commit.commitNonSpecStalls          341                       # The number of times commit has been forced to stall to communicate backwards
system.switch_cpus0.commit.branchMispredicts        22275                       # The number of times a branch was mispredicted
system.switch_cpus0.commit.committed_per_cycle::samples      2304007                       # Number of insts commited each cycle
system.switch_cpus0.commit.committed_per_cycle::mean     0.534044                       # Number of insts commited each cycle
system.switch_cpus0.commit.committed_per_cycle::stdev     1.369669                       # Number of insts commited each cycle
system.switch_cpus0.commit.committed_per_cycle::underflows            0      0.00%      0.00% # Number of insts commited each cycle
system.switch_cpus0.commit.committed_per_cycle::0      1792015     77.78%     77.78% # Number of insts commited each cycle
system.switch_cpus0.commit.committed_per_cycle::1       257420     11.17%     88.95% # Number of insts commited each cycle
system.switch_cpus0.commit.committed_per_cycle::2        93938      4.08%     93.03% # Number of insts commited each cycle
system.switch_cpus0.commit.committed_per_cycle::3        44567      1.93%     94.96% # Number of insts commited each cycle
system.switch_cpus0.commit.committed_per_cycle::4        42281      1.84%     96.80% # Number of insts commited each cycle
system.switch_cpus0.commit.committed_per_cycle::5        22132      0.96%     97.76% # Number of insts commited each cycle
system.switch_cpus0.commit.committed_per_cycle::6        16525      0.72%     98.48% # Number of insts commited each cycle
system.switch_cpus0.commit.committed_per_cycle::7         8521      0.37%     98.85% # Number of insts commited each cycle
system.switch_cpus0.commit.committed_per_cycle::8        26608      1.15%    100.00% # Number of insts commited each cycle
system.switch_cpus0.commit.committed_per_cycle::overflows            0      0.00%    100.00% # Number of insts commited each cycle
system.switch_cpus0.commit.committed_per_cycle::min_value            0                       # Number of insts commited each cycle
system.switch_cpus0.commit.committed_per_cycle::max_value            8                       # Number of insts commited each cycle
system.switch_cpus0.commit.committed_per_cycle::total      2304007                       # Number of insts commited each cycle
system.switch_cpus0.commit.committedInsts      1000000                       # Number of instructions committed
system.switch_cpus0.commit.committedOps       1230442                       # Number of ops (including micro ops) committed
system.switch_cpus0.commit.swp_count                0                       # Number of s/w prefetches committed
system.switch_cpus0.commit.refs                182347                       # Number of memory references committed
system.switch_cpus0.commit.loads               111451                       # Number of loads committed
system.switch_cpus0.commit.membars                170                       # Number of memory barriers committed
system.switch_cpus0.commit.branches            177388                       # Number of branches committed
system.switch_cpus0.commit.fp_insts                 0                       # Number of committed floating point instructions.
system.switch_cpus0.commit.int_insts          1108626                       # Number of committed integer instructions.
system.switch_cpus0.commit.function_calls        25333                       # Number of function calls committed.
system.switch_cpus0.commit.bw_lim_events        26608                       # number cycles where commit BW limit reached
system.switch_cpus0.commit.bw_limited               0                       # number of insts not committed due to BW limits
system.switch_cpus0.rob.rob_reads             3716580                       # The number of ROB reads
system.switch_cpus0.rob.rob_writes            2917152                       # The number of ROB writes
system.switch_cpus0.timesIdled                  32448                       # Number of times that the entire CPU went into an idle state and unscheduled itself
system.switch_cpus0.idleCycles                 197298                       # Total number of cycles that the CPU has spent unscheduled due to idling
system.switch_cpus0.committedInsts            1000000                       # Number of Instructions Simulated
system.switch_cpus0.committedOps              1230442                       # Number of Ops (including micro ops) Simulated
system.switch_cpus0.committedInsts_total      1000000                       # Number of Instructions Simulated
system.switch_cpus0.cpi                      2.540056                       # CPI: Cycles Per Instruction
system.switch_cpus0.cpi_total                2.540056                       # CPI: Total CPI of All Threads
system.switch_cpus0.ipc                      0.393692                       # IPC: Instructions Per Cycle
system.switch_cpus0.ipc_total                0.393692                       # IPC: Total IPC of All Threads
system.switch_cpus0.int_regfile_reads         6014610                       # number of integer regfile reads
system.switch_cpus0.int_regfile_writes        1860626                       # number of integer regfile writes
system.switch_cpus0.misc_regfile_reads        1337290                       # number of misc regfile reads
system.switch_cpus0.misc_regfile_writes           340                       # number of misc regfile writes
system.switch_cpus1.dtb.inst_hits                   0                       # ITB inst hits
system.switch_cpus1.dtb.inst_misses                 0                       # ITB inst misses
system.switch_cpus1.dtb.read_hits                   0                       # DTB read hits
system.switch_cpus1.dtb.read_misses                 0                       # DTB read misses
system.switch_cpus1.dtb.write_hits                  0                       # DTB write hits
system.switch_cpus1.dtb.write_misses                0                       # DTB write misses
system.switch_cpus1.dtb.flush_tlb                   0                       # Number of times complete TLB was flushed
system.switch_cpus1.dtb.flush_tlb_mva               0                       # Number of times TLB was flushed by MVA
system.switch_cpus1.dtb.flush_tlb_mva_asid            0                       # Number of times TLB was flushed by MVA & ASID
system.switch_cpus1.dtb.flush_tlb_asid              0                       # Number of times TLB was flushed by ASID
system.switch_cpus1.dtb.flush_entries               0                       # Number of entries that have been flushed from TLB
system.switch_cpus1.dtb.align_faults                0                       # Number of TLB faults due to alignment restrictions
system.switch_cpus1.dtb.prefetch_faults             0                       # Number of TLB faults due to prefetch
system.switch_cpus1.dtb.domain_faults               0                       # Number of TLB faults due to domain restrictions
system.switch_cpus1.dtb.perms_faults                0                       # Number of TLB faults due to permissions restrictions
system.switch_cpus1.dtb.read_accesses               0                       # DTB read accesses
system.switch_cpus1.dtb.write_accesses              0                       # DTB write accesses
system.switch_cpus1.dtb.inst_accesses               0                       # ITB inst accesses
system.switch_cpus1.dtb.hits                        0                       # DTB hits
system.switch_cpus1.dtb.misses                      0                       # DTB misses
system.switch_cpus1.dtb.accesses                    0                       # DTB accesses
system.switch_cpus1.itb.inst_hits                   0                       # ITB inst hits
system.switch_cpus1.itb.inst_misses                 0                       # ITB inst misses
system.switch_cpus1.itb.read_hits                   0                       # DTB read hits
system.switch_cpus1.itb.read_misses                 0                       # DTB read misses
system.switch_cpus1.itb.write_hits                  0                       # DTB write hits
system.switch_cpus1.itb.write_misses                0                       # DTB write misses
system.switch_cpus1.itb.flush_tlb                   0                       # Number of times complete TLB was flushed
system.switch_cpus1.itb.flush_tlb_mva               0                       # Number of times TLB was flushed by MVA
system.switch_cpus1.itb.flush_tlb_mva_asid            0                       # Number of times TLB was flushed by MVA & ASID
system.switch_cpus1.itb.flush_tlb_asid              0                       # Number of times TLB was flushed by ASID
system.switch_cpus1.itb.flush_entries               0                       # Number of entries that have been flushed from TLB
system.switch_cpus1.itb.align_faults                0                       # Number of TLB faults due to alignment restrictions
system.switch_cpus1.itb.prefetch_faults             0                       # Number of TLB faults due to prefetch
system.switch_cpus1.itb.domain_faults               0                       # Number of TLB faults due to domain restrictions
system.switch_cpus1.itb.perms_faults                0                       # Number of TLB faults due to permissions restrictions
system.switch_cpus1.itb.read_accesses               0                       # DTB read accesses
system.switch_cpus1.itb.write_accesses              0                       # DTB write accesses
system.switch_cpus1.itb.inst_accesses               0                       # ITB inst accesses
system.switch_cpus1.itb.hits                        0                       # DTB hits
system.switch_cpus1.itb.misses                      0                       # DTB misses
system.switch_cpus1.itb.accesses                    0                       # DTB accesses
system.cpu1.workload.num_syscalls                   0                       # Number of system calls
system.switch_cpus1.numCycles                 2540056                       # number of cpu cycles simulated
system.switch_cpus1.numWorkItemsStarted             0                       # number of work items this cpu started
system.switch_cpus1.numWorkItemsCompleted            0                       # number of work items this cpu completed
system.switch_cpus1.BPredUnit.lookups          195786                       # Number of BP lookups
system.switch_cpus1.BPredUnit.condPredicted       173937                       # Number of conditional branches predicted
system.switch_cpus1.BPredUnit.condIncorrect        16961                       # Number of conditional branches incorrect
system.switch_cpus1.BPredUnit.BTBLookups       128187                       # Number of BTB lookups
system.switch_cpus1.BPredUnit.BTBHits          123077                       # Number of BTB hits
system.switch_cpus1.BPredUnit.BTBCorrect            0                       # Number of correct BTB predictions (this stat may not work properly.
system.switch_cpus1.BPredUnit.usedRAS           11820                       # Number of times the RAS was used to get a target.
system.switch_cpus1.BPredUnit.RASInCorrect          559                       # Number of incorrect RAS predictions.
system.switch_cpus1.fetch.icacheStallCycles      2038866                       # Number of cycles fetch is stalled on an Icache miss
system.switch_cpus1.fetch.Insts               1109066                       # Number of instructions fetch has processed
system.switch_cpus1.fetch.Branches             195786                       # Number of branches that fetch encountered
system.switch_cpus1.fetch.predictedBranches       134897                       # Number of branches that fetch has predicted taken
system.switch_cpus1.fetch.Cycles               246396                       # Number of cycles fetch has run and was not squashing or blocked
system.switch_cpus1.fetch.SquashCycles          55216                       # Number of cycles fetch has spent squashing
system.switch_cpus1.fetch.BlockedCycles         31420                       # Number of cycles fetch has spent blocked
system.switch_cpus1.fetch.CacheLines           124464                       # Number of cache lines fetched
system.switch_cpus1.fetch.IcacheSquashes        16529                       # Number of outstanding Icache misses that were squashed
system.switch_cpus1.fetch.rateDist::samples      2354849                       # Number of instructions fetched each cycle (Total)
system.switch_cpus1.fetch.rateDist::mean     0.530908                       # Number of instructions fetched each cycle (Total)
system.switch_cpus1.fetch.rateDist::stdev     1.783817                       # Number of instructions fetched each cycle (Total)
system.switch_cpus1.fetch.rateDist::underflows            0      0.00%      0.00% # Number of instructions fetched each cycle (Total)
system.switch_cpus1.fetch.rateDist::0         2108453     89.54%     89.54% # Number of instructions fetched each cycle (Total)
system.switch_cpus1.fetch.rateDist::1           37026      1.57%     91.11% # Number of instructions fetched each cycle (Total)
system.switch_cpus1.fetch.rateDist::2           19132      0.81%     91.92% # Number of instructions fetched each cycle (Total)
system.switch_cpus1.fetch.rateDist::3           36052      1.53%     93.45% # Number of instructions fetched each cycle (Total)
system.switch_cpus1.fetch.rateDist::4           11759      0.50%     93.95% # Number of instructions fetched each cycle (Total)
system.switch_cpus1.fetch.rateDist::5           33352      1.42%     95.37% # Number of instructions fetched each cycle (Total)
system.switch_cpus1.fetch.rateDist::6            5305      0.23%     95.59% # Number of instructions fetched each cycle (Total)
system.switch_cpus1.fetch.rateDist::7            9023      0.38%     95.98% # Number of instructions fetched each cycle (Total)
system.switch_cpus1.fetch.rateDist::8           94747      4.02%    100.00% # Number of instructions fetched each cycle (Total)
system.switch_cpus1.fetch.rateDist::overflows            0      0.00%    100.00% # Number of instructions fetched each cycle (Total)
system.switch_cpus1.fetch.rateDist::min_value            0                       # Number of instructions fetched each cycle (Total)
system.switch_cpus1.fetch.rateDist::max_value            8                       # Number of instructions fetched each cycle (Total)
system.switch_cpus1.fetch.rateDist::total      2354849                       # Number of instructions fetched each cycle (Total)
system.switch_cpus1.fetch.branchRate         0.077079                       # Number of branch fetches per cycle
system.switch_cpus1.fetch.rate               0.436631                       # Number of inst fetches per cycle
system.switch_cpus1.decode.IdleCycles         1962250                       # Number of cycles decode is idle
system.switch_cpus1.decode.BlockedCycles       108735                       # Number of cycles decode is blocked
system.switch_cpus1.decode.RunCycles           245771                       # Number of cycles decode is running
system.switch_cpus1.decode.UnblockCycles          271                       # Number of cycles decode is unblocking
system.switch_cpus1.decode.SquashCycles         37821                       # Number of cycles decode is squashing
system.switch_cpus1.decode.BranchResolved        19296                       # Number of times decode resolved a branch
system.switch_cpus1.decode.BranchMispred          347                       # Number of times decode detected a branch misprediction
system.switch_cpus1.decode.DecodedInsts       1246121                       # Number of instructions handled by decode
system.switch_cpus1.decode.SquashedInsts         1368                       # Number of squashed instructions handled by decode
system.switch_cpus1.rename.SquashCycles         37821                       # Number of cycles rename is squashing
system.switch_cpus1.rename.IdleCycles         1970721                       # Number of cycles rename is idle
system.switch_cpus1.rename.BlockCycles          72218                       # Number of cycles rename is blocking
system.switch_cpus1.rename.serializeStallCycles        13304                       # count of cycles rename stalled for serializing inst
system.switch_cpus1.rename.RunCycles           239334                       # Number of cycles rename is running
system.switch_cpus1.rename.UnblockCycles        21450                       # Number of cycles rename is unblocking
system.switch_cpus1.rename.RenamedInsts       1243458                       # Number of instructions processed by rename
system.switch_cpus1.rename.ROBFullEvents           12                       # Number of times rename has blocked due to ROB full
system.switch_cpus1.rename.IQFullEvents           957                       # Number of times rename has blocked due to IQ full
system.switch_cpus1.rename.LSQFullEvents        19706                       # Number of times rename has blocked due to LSQ full
system.switch_cpus1.rename.RenamedOperands      1637679                       # Number of destination operands rename has renamed
system.switch_cpus1.rename.RenameLookups      5640013                       # Number of register rename lookups that rename has made
system.switch_cpus1.rename.int_rename_lookups      5640013                       # Number of integer rename lookups
system.switch_cpus1.rename.CommittedMaps      1303097                       # Number of HB maps that are committed
system.switch_cpus1.rename.UndoneMaps          334562                       # Number of HB maps that are undone due to squashing
system.switch_cpus1.rename.serializingInsts          166                       # count of serializing insts renamed
system.switch_cpus1.rename.tempSerializingInsts           83                       # count of temporary serializing insts renamed
system.switch_cpus1.rename.skidInsts            37740                       # count of insts added to the skid buffer
system.switch_cpus1.memDep0.insertedLoads       218929                       # Number of loads inserted to the mem dependence unit.
system.switch_cpus1.memDep0.insertedStores        36633                       # Number of stores inserted to the mem dependence unit.
system.switch_cpus1.memDep0.conflictingLoads          225                       # Number of conflicting loads.
system.switch_cpus1.memDep0.conflictingStores         8309                       # Number of conflicting stores.
system.switch_cpus1.iq.iqInstsAdded           1235124                       # Number of instructions added to the IQ (excludes non-spec)
system.switch_cpus1.iq.iqNonSpecInstsAdded          165                       # Number of non-speculative instructions added to the IQ
system.switch_cpus1.iq.iqInstsIssued          1147751                       # Number of instructions issued
system.switch_cpus1.iq.iqSquashedInstsIssued         1103                       # Number of squashed instructions issued
system.switch_cpus1.iq.iqSquashedInstsExamined       236952                       # Number of squashed instructions iterated over during squash; mainly for profiling
system.switch_cpus1.iq.iqSquashedOperandsExamined       498813                       # Number of squashed operands that are examined and possibly removed from graph
system.switch_cpus1.iq.iqSquashedNonSpecRemoved            1                       # Number of squashed non-spec instructions that were removed
system.switch_cpus1.iq.issued_per_cycle::samples      2354849                       # Number of insts issued each cycle
system.switch_cpus1.iq.issued_per_cycle::mean     0.487399                       # Number of insts issued each cycle
system.switch_cpus1.iq.issued_per_cycle::stdev     1.102133                       # Number of insts issued each cycle
system.switch_cpus1.iq.issued_per_cycle::underflows            0      0.00%      0.00% # Number of insts issued each cycle
system.switch_cpus1.iq.issued_per_cycle::0      1848889     78.51%     78.51% # Number of insts issued each cycle
system.switch_cpus1.iq.issued_per_cycle::1       168200      7.14%     85.66% # Number of insts issued each cycle
system.switch_cpus1.iq.issued_per_cycle::2       159606      6.78%     92.43% # Number of insts issued each cycle
system.switch_cpus1.iq.issued_per_cycle::3        98375      4.18%     96.61% # Number of insts issued each cycle
system.switch_cpus1.iq.issued_per_cycle::4        50681      2.15%     98.76% # Number of insts issued each cycle
system.switch_cpus1.iq.issued_per_cycle::5        13050      0.55%     99.32% # Number of insts issued each cycle
system.switch_cpus1.iq.issued_per_cycle::6        15391      0.65%     99.97% # Number of insts issued each cycle
system.switch_cpus1.iq.issued_per_cycle::7          362      0.02%     99.99% # Number of insts issued each cycle
system.switch_cpus1.iq.issued_per_cycle::8          295      0.01%    100.00% # Number of insts issued each cycle
system.switch_cpus1.iq.issued_per_cycle::overflows            0      0.00%    100.00% # Number of insts issued each cycle
system.switch_cpus1.iq.issued_per_cycle::min_value            0                       # Number of insts issued each cycle
system.switch_cpus1.iq.issued_per_cycle::max_value            8                       # Number of insts issued each cycle
system.switch_cpus1.iq.issued_per_cycle::total      2354849                       # Number of insts issued each cycle
system.switch_cpus1.iq.fu_full::No_OpClass            0      0.00%      0.00% # attempts to use FU when none available
system.switch_cpus1.iq.fu_full::IntAlu           2092     58.45%     58.45% # attempts to use FU when none available
system.switch_cpus1.iq.fu_full::IntMult             0      0.00%     58.45% # attempts to use FU when none available
system.switch_cpus1.iq.fu_full::IntDiv              0      0.00%     58.45% # attempts to use FU when none available
system.switch_cpus1.iq.fu_full::FloatAdd            0      0.00%     58.45% # attempts to use FU when none available
system.switch_cpus1.iq.fu_full::FloatCmp            0      0.00%     58.45% # attempts to use FU when none available
system.switch_cpus1.iq.fu_full::FloatCvt            0      0.00%     58.45% # attempts to use FU when none available
system.switch_cpus1.iq.fu_full::FloatMult            0      0.00%     58.45% # attempts to use FU when none available
system.switch_cpus1.iq.fu_full::FloatDiv            0      0.00%     58.45% # attempts to use FU when none available
system.switch_cpus1.iq.fu_full::FloatSqrt            0      0.00%     58.45% # attempts to use FU when none available
system.switch_cpus1.iq.fu_full::SimdAdd             0      0.00%     58.45% # attempts to use FU when none available
system.switch_cpus1.iq.fu_full::SimdAddAcc            0      0.00%     58.45% # attempts to use FU when none available
system.switch_cpus1.iq.fu_full::SimdAlu             0      0.00%     58.45% # attempts to use FU when none available
system.switch_cpus1.iq.fu_full::SimdCmp             0      0.00%     58.45% # attempts to use FU when none available
system.switch_cpus1.iq.fu_full::SimdCvt             0      0.00%     58.45% # attempts to use FU when none available
system.switch_cpus1.iq.fu_full::SimdMisc            0      0.00%     58.45% # attempts to use FU when none available
system.switch_cpus1.iq.fu_full::SimdMult            0      0.00%     58.45% # attempts to use FU when none available
system.switch_cpus1.iq.fu_full::SimdMultAcc            0      0.00%     58.45% # attempts to use FU when none available
system.switch_cpus1.iq.fu_full::SimdShift            0      0.00%     58.45% # attempts to use FU when none available
system.switch_cpus1.iq.fu_full::SimdShiftAcc            0      0.00%     58.45% # attempts to use FU when none available
system.switch_cpus1.iq.fu_full::SimdSqrt            0      0.00%     58.45% # attempts to use FU when none available
system.switch_cpus1.iq.fu_full::SimdFloatAdd            0      0.00%     58.45% # attempts to use FU when none available
system.switch_cpus1.iq.fu_full::SimdFloatAlu            0      0.00%     58.45% # attempts to use FU when none available
system.switch_cpus1.iq.fu_full::SimdFloatCmp            0      0.00%     58.45% # attempts to use FU when none available
system.switch_cpus1.iq.fu_full::SimdFloatCvt            0      0.00%     58.45% # attempts to use FU when none available
system.switch_cpus1.iq.fu_full::SimdFloatDiv            0      0.00%     58.45% # attempts to use FU when none available
system.switch_cpus1.iq.fu_full::SimdFloatMisc            0      0.00%     58.45% # attempts to use FU when none available
system.switch_cpus1.iq.fu_full::SimdFloatMult            0      0.00%     58.45% # attempts to use FU when none available
system.switch_cpus1.iq.fu_full::SimdFloatMultAcc            0      0.00%     58.45% # attempts to use FU when none available
system.switch_cpus1.iq.fu_full::SimdFloatSqrt            0      0.00%     58.45% # attempts to use FU when none available
system.switch_cpus1.iq.fu_full::MemRead           825     23.05%     81.50% # attempts to use FU when none available
system.switch_cpus1.iq.fu_full::MemWrite          662     18.50%    100.00% # attempts to use FU when none available
system.switch_cpus1.iq.fu_full::IprAccess            0      0.00%    100.00% # attempts to use FU when none available
system.switch_cpus1.iq.fu_full::InstPrefetch            0      0.00%    100.00% # attempts to use FU when none available
system.switch_cpus1.iq.FU_type_0::No_OpClass            0      0.00%      0.00% # Type of FU issued
system.switch_cpus1.iq.FU_type_0::IntAlu       903910     78.75%     78.75% # Type of FU issued
system.switch_cpus1.iq.FU_type_0::IntMult         9237      0.80%     79.56% # Type of FU issued
system.switch_cpus1.iq.FU_type_0::IntDiv            0      0.00%     79.56% # Type of FU issued
system.switch_cpus1.iq.FU_type_0::FloatAdd            0      0.00%     79.56% # Type of FU issued
system.switch_cpus1.iq.FU_type_0::FloatCmp            0      0.00%     79.56% # Type of FU issued
system.switch_cpus1.iq.FU_type_0::FloatCvt            0      0.00%     79.56% # Type of FU issued
system.switch_cpus1.iq.FU_type_0::FloatMult            0      0.00%     79.56% # Type of FU issued
system.switch_cpus1.iq.FU_type_0::FloatDiv            0      0.00%     79.56% # Type of FU issued
system.switch_cpus1.iq.FU_type_0::FloatSqrt            0      0.00%     79.56% # Type of FU issued
system.switch_cpus1.iq.FU_type_0::SimdAdd            0      0.00%     79.56% # Type of FU issued
system.switch_cpus1.iq.FU_type_0::SimdAddAcc            0      0.00%     79.56% # Type of FU issued
system.switch_cpus1.iq.FU_type_0::SimdAlu            0      0.00%     79.56% # Type of FU issued
system.switch_cpus1.iq.FU_type_0::SimdCmp            0      0.00%     79.56% # Type of FU issued
system.switch_cpus1.iq.FU_type_0::SimdCvt            0      0.00%     79.56% # Type of FU issued
system.switch_cpus1.iq.FU_type_0::SimdMisc            0      0.00%     79.56% # Type of FU issued
[...]
system.cpu7.icache.ReadReq_miss_latency::total      2705904                       # number of ReadReq miss cycles
system.cpu7.icache.demand_miss_latency::switch_cpus7.inst      2705904                       # number of demand (read+write) miss cycles
system.cpu7.icache.demand_miss_latency::total      2705904                       # number of demand (read+write) miss cycles
system.cpu7.icache.overall_miss_latency::switch_cpus7.inst      2705904                       # number of overall miss cycles
system.cpu7.icache.overall_miss_latency::total      2705904                       # number of overall miss cycles
system.cpu7.icache.ReadReq_accesses::switch_cpus7.inst       122162                       # number of ReadReq accesses(hits+misses)
system.cpu7.icache.ReadReq_accesses::total       122162                       # number of ReadReq accesses(hits+misses)
system.cpu7.icache.demand_accesses::switch_cpus7.inst       122162                       # number of demand (read+write) accesses
system.cpu7.icache.demand_accesses::total       122162                       # number of demand (read+write) accesses
system.cpu7.icache.overall_accesses::switch_cpus7.inst       122162                       # number of overall (read+write) accesses
system.cpu7.icache.overall_accesses::total       122162                       # number of overall (read+write) accesses
system.cpu7.icache.ReadReq_miss_rate::switch_cpus7.inst     0.000139                       # miss rate for ReadReq accesses
system.cpu7.icache.ReadReq_miss_rate::total     0.000139                       # miss rate for ReadReq accesses
system.cpu7.icache.demand_miss_rate::switch_cpus7.inst     0.000139                       # miss rate for demand accesses
system.cpu7.icache.demand_miss_rate::total     0.000139                       # miss rate for demand accesses
system.cpu7.icache.overall_miss_rate::switch_cpus7.inst     0.000139                       # miss rate for overall accesses
system.cpu7.icache.overall_miss_rate::total     0.000139                       # miss rate for overall accesses
system.cpu7.icache.ReadReq_avg_miss_latency::switch_cpus7.inst 159170.823529                       # average ReadReq miss latency
system.cpu7.icache.ReadReq_avg_miss_latency::total 159170.823529                       # average ReadReq miss latency
system.cpu7.icache.demand_avg_miss_latency::switch_cpus7.inst 159170.823529                       # average overall miss latency
system.cpu7.icache.demand_avg_miss_latency::total 159170.823529                       # average overall miss latency
system.cpu7.icache.overall_avg_miss_latency::switch_cpus7.inst 159170.823529                       # average overall miss latency
system.cpu7.icache.overall_avg_miss_latency::total 159170.823529                       # average overall miss latency
system.cpu7.icache.blocked_cycles::no_mshrs            0                       # number of cycles access was blocked
system.cpu7.icache.blocked_cycles::no_targets            0                       # number of cycles access was blocked
system.cpu7.icache.blocked::no_mshrs                0                       # number of cycles access was blocked
system.cpu7.icache.blocked::no_targets              0                       # number of cycles access was blocked
system.cpu7.icache.avg_blocked_cycles::no_mshrs          nan                       # average number of cycles each access was blocked
system.cpu7.icache.avg_blocked_cycles::no_targets          nan                       # average number of cycles each access was blocked
system.cpu7.icache.fast_writes                      0                       # number of fast writes performed
system.cpu7.icache.cache_copies                     0                       # number of cache copies performed
system.cpu7.icache.ReadReq_mshr_hits::switch_cpus7.inst            3                       # number of ReadReq MSHR hits
system.cpu7.icache.ReadReq_mshr_hits::total            3                       # number of ReadReq MSHR hits
system.cpu7.icache.demand_mshr_hits::switch_cpus7.inst            3                       # number of demand (read+write) MSHR hits
system.cpu7.icache.demand_mshr_hits::total            3                       # number of demand (read+write) MSHR hits
system.cpu7.icache.overall_mshr_hits::switch_cpus7.inst            3                       # number of overall MSHR hits
system.cpu7.icache.overall_mshr_hits::total            3                       # number of overall MSHR hits
system.cpu7.icache.ReadReq_mshr_misses::switch_cpus7.inst           14                       # number of ReadReq MSHR misses
system.cpu7.icache.ReadReq_mshr_misses::total           14                       # number of ReadReq MSHR misses
system.cpu7.icache.demand_mshr_misses::switch_cpus7.inst           14                       # number of demand (read+write) MSHR misses
system.cpu7.icache.demand_mshr_misses::total           14                       # number of demand (read+write) MSHR misses
system.cpu7.icache.overall_mshr_misses::switch_cpus7.inst           14                       # number of overall MSHR misses
system.cpu7.icache.overall_mshr_misses::total           14                       # number of overall MSHR misses
system.cpu7.icache.ReadReq_mshr_miss_latency::switch_cpus7.inst      2222934                       # number of ReadReq MSHR miss cycles
system.cpu7.icache.ReadReq_mshr_miss_latency::total      2222934                       # number of ReadReq MSHR miss cycles
system.cpu7.icache.demand_mshr_miss_latency::switch_cpus7.inst      2222934                       # number of demand (read+write) MSHR miss cycles
system.cpu7.icache.demand_mshr_miss_latency::total      2222934                       # number of demand (read+write) MSHR miss cycles
system.cpu7.icache.overall_mshr_miss_latency::switch_cpus7.inst      2222934                       # number of overall MSHR miss cycles
system.cpu7.icache.overall_mshr_miss_latency::total      2222934                       # number of overall MSHR miss cycles
system.cpu7.icache.ReadReq_mshr_miss_rate::switch_cpus7.inst     0.000115                       # mshr miss rate for ReadReq accesses
system.cpu7.icache.ReadReq_mshr_miss_rate::total     0.000115                       # mshr miss rate for ReadReq accesses
system.cpu7.icache.demand_mshr_miss_rate::switch_cpus7.inst     0.000115                       # mshr miss rate for demand accesses
system.cpu7.icache.demand_mshr_miss_rate::total     0.000115                       # mshr miss rate for demand accesses
system.cpu7.icache.overall_mshr_miss_rate::switch_cpus7.inst     0.000115                       # mshr miss rate for overall accesses
system.cpu7.icache.overall_mshr_miss_rate::total     0.000115                       # mshr miss rate for overall accesses
system.cpu7.icache.ReadReq_avg_mshr_miss_latency::switch_cpus7.inst       158781                       # average ReadReq mshr miss latency
system.cpu7.icache.ReadReq_avg_mshr_miss_latency::total       158781                       # average ReadReq mshr miss latency
system.cpu7.icache.demand_avg_mshr_miss_latency::switch_cpus7.inst       158781                       # average overall mshr miss latency
system.cpu7.icache.demand_avg_mshr_miss_latency::total       158781                       # average overall mshr miss latency
system.cpu7.icache.overall_avg_mshr_miss_latency::switch_cpus7.inst       158781                       # average overall mshr miss latency
system.cpu7.icache.overall_avg_mshr_miss_latency::total       158781                       # average overall mshr miss latency
system.cpu7.icache.no_allocate_misses               0                       # Number of misses that were no-allocate
system.cpu7.dcache.replacements                   745                       # number of replacements
system.cpu7.dcache.tagsinuse                      256                       # Cycle average of tags in use
system.cpu7.dcache.total_refs               289563605                       # Total number of references to valid blocks.
system.cpu7.dcache.sampled_refs                  1001                       # Sample count of references to valid blocks.
system.cpu7.dcache.avg_refs              289274.330669                       # Average number of references to valid blocks.
system.cpu7.dcache.warmup_cycle                     0                       # Cycle when the warmup percentage was hit.
system.cpu7.dcache.occ_blocks::switch_cpus7.data   100.868179                       # Average occupied blocks per requestor
system.cpu7.dcache.occ_blocks::cpu7.data   155.131821                       # Average occupied blocks per requestor
system.cpu7.dcache.occ_percent::switch_cpus7.data     0.394016                       # Average percentage of cache occupancy
system.cpu7.dcache.occ_percent::cpu7.data     0.605984                       # Average percentage of cache occupancy
system.cpu7.dcache.occ_percent::total               1                       # Average percentage of cache occupancy
system.cpu7.dcache.ReadReq_hits::switch_cpus7.data       313183                       # number of ReadReq hits
system.cpu7.dcache.ReadReq_hits::total         313183                       # number of ReadReq hits
system.cpu7.dcache.WriteReq_hits::switch_cpus7.data       170970                       # number of WriteReq hits
system.cpu7.dcache.WriteReq_hits::total        170970                       # number of WriteReq hits
system.cpu7.dcache.LoadLockedReq_hits::switch_cpus7.data           85                       # number of LoadLockedReq hits
system.cpu7.dcache.LoadLockedReq_hits::total           85                       # number of LoadLockedReq hits
system.cpu7.dcache.StoreCondReq_hits::switch_cpus7.data           84                       # number of StoreCondReq hits
system.cpu7.dcache.StoreCondReq_hits::total           84                       # number of StoreCondReq hits
system.cpu7.dcache.demand_hits::switch_cpus7.data       484153                       # number of demand (read+write) hits
system.cpu7.dcache.demand_hits::total          484153                       # number of demand (read+write) hits
system.cpu7.dcache.overall_hits::switch_cpus7.data       484153                       # number of overall hits
system.cpu7.dcache.overall_hits::total         484153                       # number of overall hits
system.cpu7.dcache.ReadReq_misses::switch_cpus7.data         2617                       # number of ReadReq misses
system.cpu7.dcache.ReadReq_misses::total         2617                       # number of ReadReq misses
system.cpu7.dcache.demand_misses::switch_cpus7.data         2617                       # number of demand (read+write) misses
system.cpu7.dcache.demand_misses::total          2617                       # number of demand (read+write) misses
system.cpu7.dcache.overall_misses::switch_cpus7.data         2617                       # number of overall misses
system.cpu7.dcache.overall_misses::total         2617                       # number of overall misses
system.cpu7.dcache.ReadReq_miss_latency::switch_cpus7.data    267953826                       # number of ReadReq miss cycles
system.cpu7.dcache.ReadReq_miss_latency::total    267953826                       # number of ReadReq miss cycles
system.cpu7.dcache.demand_miss_latency::switch_cpus7.data    267953826                       # number of demand (read+write) miss cycles
system.cpu7.dcache.demand_miss_latency::total    267953826                       # number of demand (read+write) miss cycles
system.cpu7.dcache.overall_miss_latency::switch_cpus7.data    267953826                       # number of overall miss cycles
system.cpu7.dcache.overall_miss_latency::total    267953826                       # number of overall miss cycles
system.cpu7.dcache.ReadReq_accesses::switch_cpus7.data       315800                       # number of ReadReq accesses(hits+misses)
system.cpu7.dcache.ReadReq_accesses::total       315800                       # number of ReadReq accesses(hits+misses)
system.cpu7.dcache.WriteReq_accesses::switch_cpus7.data       170970                       # number of WriteReq accesses(hits+misses)
system.cpu7.dcache.WriteReq_accesses::total       170970                       # number of WriteReq accesses(hits+misses)
system.cpu7.dcache.LoadLockedReq_accesses::switch_cpus7.data           85                       # number of LoadLockedReq accesses(hits+misses)
system.cpu7.dcache.LoadLockedReq_accesses::total           85                       # number of LoadLockedReq accesses(hits+misses)
system.cpu7.dcache.StoreCondReq_accesses::switch_cpus7.data           84                       # number of StoreCondReq accesses(hits+misses)
system.cpu7.dcache.StoreCondReq_accesses::total           84                       # number of StoreCondReq accesses(hits+misses)
system.cpu7.dcache.demand_accesses::switch_cpus7.data       486770                       # number of demand (read+write) accesses
system.cpu7.dcache.demand_accesses::total       486770                       # number of demand (read+write) accesses
system.cpu7.dcache.overall_accesses::switch_cpus7.data       486770                       # number of overall (read+write) accesses
system.cpu7.dcache.overall_accesses::total       486770                       # number of overall (read+write) accesses
system.cpu7.dcache.ReadReq_miss_rate::switch_cpus7.data     0.008287                       # miss rate for ReadReq accesses
system.cpu7.dcache.ReadReq_miss_rate::total     0.008287                       # miss rate for ReadReq accesses
system.cpu7.dcache.demand_miss_rate::switch_cpus7.data     0.005376                       # miss rate for demand accesses
system.cpu7.dcache.demand_miss_rate::total     0.005376                       # miss rate for demand accesses
system.cpu7.dcache.overall_miss_rate::switch_cpus7.data     0.005376                       # miss rate for overall accesses
system.cpu7.dcache.overall_miss_rate::total     0.005376                       # miss rate for overall accesses
system.cpu7.dcache.ReadReq_avg_miss_latency::switch_cpus7.data 102389.692778                       # average ReadReq miss latency
system.cpu7.dcache.ReadReq_avg_miss_latency::total 102389.692778                       # average ReadReq miss latency
system.cpu7.dcache.demand_avg_miss_latency::switch_cpus7.data 102389.692778                       # average overall miss latency
system.cpu7.dcache.demand_avg_miss_latency::total 102389.692778                       # average overall miss latency
system.cpu7.dcache.overall_avg_miss_latency::switch_cpus7.data 102389.692778                       # average overall miss latency
system.cpu7.dcache.overall_avg_miss_latency::total 102389.692778                       # average overall miss latency
system.cpu7.dcache.blocked_cycles::no_mshrs            0                       # number of cycles access was blocked
system.cpu7.dcache.blocked_cycles::no_targets            0                       # number of cycles access was blocked
system.cpu7.dcache.blocked::no_mshrs                0                       # number of cycles access was blocked
system.cpu7.dcache.blocked::no_targets              0                       # number of cycles access was blocked
system.cpu7.dcache.avg_blocked_cycles::no_mshrs          nan                       # average number of cycles each access was blocked
system.cpu7.dcache.avg_blocked_cycles::no_targets          nan                       # average number of cycles each access was blocked
system.cpu7.dcache.fast_writes                      0                       # number of fast writes performed
system.cpu7.dcache.cache_copies                     0                       # number of cache copies performed
system.cpu7.dcache.writebacks::writebacks          182                       # number of writebacks
system.cpu7.dcache.writebacks::total              182                       # number of writebacks
system.cpu7.dcache.ReadReq_mshr_hits::switch_cpus7.data         1872                       # number of ReadReq MSHR hits
system.cpu7.dcache.ReadReq_mshr_hits::total         1872                       # number of ReadReq MSHR hits
system.cpu7.dcache.demand_mshr_hits::switch_cpus7.data         1872                       # number of demand (read+write) MSHR hits
system.cpu7.dcache.demand_mshr_hits::total         1872                       # number of demand (read+write) MSHR hits
system.cpu7.dcache.overall_mshr_hits::switch_cpus7.data         1872                       # number of overall MSHR hits
system.cpu7.dcache.overall_mshr_hits::total         1872                       # number of overall MSHR hits
system.cpu7.dcache.ReadReq_mshr_misses::switch_cpus7.data          745                       # number of ReadReq MSHR misses
system.cpu7.dcache.ReadReq_mshr_misses::total          745                       # number of ReadReq MSHR misses
system.cpu7.dcache.demand_mshr_misses::switch_cpus7.data          745                       # number of demand (read+write) MSHR misses
system.cpu7.dcache.demand_mshr_misses::total          745                       # number of demand (read+write) MSHR misses
system.cpu7.dcache.overall_mshr_misses::switch_cpus7.data          745                       # number of overall MSHR misses
system.cpu7.dcache.overall_mshr_misses::total          745                       # number of overall MSHR misses
system.cpu7.dcache.ReadReq_mshr_miss_latency::switch_cpus7.data     69302249                       # number of ReadReq MSHR miss cycles
system.cpu7.dcache.ReadReq_mshr_miss_latency::total     69302249                       # number of ReadReq MSHR miss cycles
system.cpu7.dcache.demand_mshr_miss_latency::switch_cpus7.data     69302249                       # number of demand (read+write) MSHR miss cycles
system.cpu7.dcache.demand_mshr_miss_latency::total     69302249                       # number of demand (read+write) MSHR miss cycles
system.cpu7.dcache.overall_mshr_miss_latency::switch_cpus7.data     69302249                       # number of overall MSHR miss cycles
system.cpu7.dcache.overall_mshr_miss_latency::total     69302249                       # number of overall MSHR miss cycles
system.cpu7.dcache.ReadReq_mshr_miss_rate::switch_cpus7.data     0.002359                       # mshr miss rate for ReadReq accesses
system.cpu7.dcache.ReadReq_mshr_miss_rate::total     0.002359                       # mshr miss rate for ReadReq accesses
system.cpu7.dcache.demand_mshr_miss_rate::switch_cpus7.data     0.001530                       # mshr miss rate for demand accesses
system.cpu7.dcache.demand_mshr_miss_rate::total     0.001530                       # mshr miss rate for demand accesses
system.cpu7.dcache.overall_mshr_miss_rate::switch_cpus7.data     0.001530                       # mshr miss rate for overall accesses
system.cpu7.dcache.overall_mshr_miss_rate::total     0.001530                       # mshr miss rate for overall accesses
system.cpu7.dcache.ReadReq_avg_mshr_miss_latency::switch_cpus7.data 93023.153020                       # average ReadReq mshr miss latency
system.cpu7.dcache.ReadReq_avg_mshr_miss_latency::total 93023.153020                       # average ReadReq mshr miss latency
system.cpu7.dcache.demand_avg_mshr_miss_latency::switch_cpus7.data 93023.153020                       # average overall mshr miss latency
system.cpu7.dcache.demand_avg_mshr_miss_latency::total 93023.153020                       # average overall mshr miss latency
system.cpu7.dcache.overall_avg_mshr_miss_latency::switch_cpus7.data 93023.153020                       # average overall mshr miss latency
system.cpu7.dcache.overall_avg_mshr_miss_latency::total 93023.153020                       # average overall mshr miss latency
system.cpu7.dcache.no_allocate_misses               0                       # Number of misses that were no-allocate

---------- End Simulation Statistics   ----------
