
---------- Begin Simulation Statistics ----------
sim_seconds                                  0.001195                       # Number of seconds simulated
sim_ticks                                  1194601584                       # Number of ticks simulated
final_tick                               400396743012                       # Number of ticks from beginning of simulation (restored from checkpoints and never reset)
sim_freq                                 1000000000000                       # Frequency of simulated ticks
host_inst_rate                                 403566                       # Simulator instruction rate (inst/s)
host_op_rate                                   521229                       # Simulator op (including micro ops) rate (op/s)
host_tick_rate                                  40599                       # Simulator tick rate (ticks/s)
host_mem_usage                               67750760                       # Number of bytes of host memory used
host_seconds                                 29424.41                       # Real time elapsed on the host
sim_insts                                 11874683521                       # Number of instructions simulated
sim_ops                                   15336851943                       # Number of ops (including micro ops) simulated
system.physmem.bytes_read::switch_cpus00.inst         3072                       # Number of bytes read from this memory
system.physmem.bytes_read::switch_cpus00.data        22912                       # Number of bytes read from this memory
system.physmem.bytes_read::switch_cpus01.inst         3072                       # Number of bytes read from this memory
system.physmem.bytes_read::switch_cpus01.data        22912                       # Number of bytes read from this memory
system.physmem.bytes_read::switch_cpus02.inst         1408                       # Number of bytes read from this memory
system.physmem.bytes_read::switch_cpus02.data        13312                       # Number of bytes read from this memory
system.physmem.bytes_read::switch_cpus03.inst         3456                       # Number of bytes read from this memory
system.physmem.bytes_read::switch_cpus03.data        16384                       # Number of bytes read from this memory
system.physmem.bytes_read::switch_cpus04.inst         3712                       # Number of bytes read from this memory
system.physmem.bytes_read::switch_cpus04.data        43008                       # Number of bytes read from this memory
system.physmem.bytes_read::switch_cpus05.inst         1408                       # Number of bytes read from this memory
system.physmem.bytes_read::switch_cpus05.data        13312                       # Number of bytes read from this memory
system.physmem.bytes_read::switch_cpus06.inst         3200                       # Number of bytes read from this memory
system.physmem.bytes_read::switch_cpus06.data        27264                       # Number of bytes read from this memory
system.physmem.bytes_read::switch_cpus07.inst         3584                       # Number of bytes read from this memory
system.physmem.bytes_read::switch_cpus07.data        17152                       # Number of bytes read from this memory
system.physmem.bytes_read::switch_cpus08.inst         1408                       # Number of bytes read from this memory
system.physmem.bytes_read::switch_cpus08.data        13056                       # Number of bytes read from this memory
system.physmem.bytes_read::switch_cpus09.inst         3200                       # Number of bytes read from this memory
system.physmem.bytes_read::switch_cpus09.data        27264                       # Number of bytes read from this memory
system.physmem.bytes_read::switch_cpus10.inst         3456                       # Number of bytes read from this memory
system.physmem.bytes_read::switch_cpus10.data        16384                       # Number of bytes read from this memory
system.physmem.bytes_read::switch_cpus11.inst         3840                       # Number of bytes read from this memory
system.physmem.bytes_read::switch_cpus11.data        43264                       # Number of bytes read from this memory
system.physmem.bytes_read::switch_cpus12.inst         3840                       # Number of bytes read from this memory
system.physmem.bytes_read::switch_cpus12.data        43264                       # Number of bytes read from this memory
system.physmem.bytes_read::switch_cpus13.inst         3072                       # Number of bytes read from this memory
system.physmem.bytes_read::switch_cpus13.data        22912                       # Number of bytes read from this memory
system.physmem.bytes_read::switch_cpus14.inst         3072                       # Number of bytes read from this memory
system.physmem.bytes_read::switch_cpus14.data        22912                       # Number of bytes read from this memory
system.physmem.bytes_read::switch_cpus15.inst         1408                       # Number of bytes read from this memory
system.physmem.bytes_read::switch_cpus15.data        13312                       # Number of bytes read from this memory
system.physmem.bytes_read::total               424832                       # Number of bytes read from this memory
system.physmem.bytes_inst_read::switch_cpus00.inst         3072                       # Number of instructions bytes read from this memory
system.physmem.bytes_inst_read::switch_cpus01.inst         3072                       # Number of instructions bytes read from this memory
system.physmem.bytes_inst_read::switch_cpus02.inst         1408                       # Number of instructions bytes read from this memory
system.physmem.bytes_inst_read::switch_cpus03.inst         3456                       # Number of instructions bytes read from this memory
system.physmem.bytes_inst_read::switch_cpus04.inst         3712                       # Number of instructions bytes read from this memory
system.physmem.bytes_inst_read::switch_cpus05.inst         1408                       # Number of instructions bytes read from this memory
system.physmem.bytes_inst_read::switch_cpus06.inst         3200                       # Number of instructions bytes read from this memory
system.physmem.bytes_inst_read::switch_cpus07.inst         3584                       # Number of instructions bytes read from this memory
system.physmem.bytes_inst_read::switch_cpus08.inst         1408                       # Number of instructions bytes read from this memory
system.physmem.bytes_inst_read::switch_cpus09.inst         3200                       # Number of instructions bytes read from this memory
system.physmem.bytes_inst_read::switch_cpus10.inst         3456                       # Number of instructions bytes read from this memory
system.physmem.bytes_inst_read::switch_cpus11.inst         3840                       # Number of instructions bytes read from this memory
system.physmem.bytes_inst_read::switch_cpus12.inst         3840                       # Number of instructions bytes read from this memory
system.physmem.bytes_inst_read::switch_cpus13.inst         3072                       # Number of instructions bytes read from this memory
system.physmem.bytes_inst_read::switch_cpus14.inst         3072                       # Number of instructions bytes read from this memory
system.physmem.bytes_inst_read::switch_cpus15.inst         1408                       # Number of instructions bytes read from this memory
system.physmem.bytes_inst_read::total           46208                       # Number of instructions bytes read from this memory
system.physmem.bytes_written::writebacks       142336                       # Number of bytes written to this memory
system.physmem.bytes_written::total            142336                       # Number of bytes written to this memory
system.physmem.num_reads::switch_cpus00.inst           24                       # Number of read requests responded to by this memory
system.physmem.num_reads::switch_cpus00.data          179                       # Number of read requests responded to by this memory
system.physmem.num_reads::switch_cpus01.inst           24                       # Number of read requests responded to by this memory
system.physmem.num_reads::switch_cpus01.data          179                       # Number of read requests responded to by this memory
system.physmem.num_reads::switch_cpus02.inst           11                       # Number of read requests responded to by this memory
system.physmem.num_reads::switch_cpus02.data          104                       # Number of read requests responded to by this memory
system.physmem.num_reads::switch_cpus03.inst           27                       # Number of read requests responded to by this memory
system.physmem.num_reads::switch_cpus03.data          128                       # Number of read requests responded to by this memory
system.physmem.num_reads::switch_cpus04.inst           29                       # Number of read requests responded to by this memory
system.physmem.num_reads::switch_cpus04.data          336                       # Number of read requests responded to by this memory
system.physmem.num_reads::switch_cpus05.inst           11                       # Number of read requests responded to by this memory
system.physmem.num_reads::switch_cpus05.data          104                       # Number of read requests responded to by this memory
system.physmem.num_reads::switch_cpus06.inst           25                       # Number of read requests responded to by this memory
system.physmem.num_reads::switch_cpus06.data          213                       # Number of read requests responded to by this memory
system.physmem.num_reads::switch_cpus07.inst           28                       # Number of read requests responded to by this memory
system.physmem.num_reads::switch_cpus07.data          134                       # Number of read requests responded to by this memory
system.physmem.num_reads::switch_cpus08.inst           11                       # Number of read requests responded to by this memory
system.physmem.num_reads::switch_cpus08.data          102                       # Number of read requests responded to by this memory
system.physmem.num_reads::switch_cpus09.inst           25                       # Number of read requests responded to by this memory
system.physmem.num_reads::switch_cpus09.data          213                       # Number of read requests responded to by this memory
system.physmem.num_reads::switch_cpus10.inst           27                       # Number of read requests responded to by this memory
system.physmem.num_reads::switch_cpus10.data          128                       # Number of read requests responded to by this memory
system.physmem.num_reads::switch_cpus11.inst           30                       # Number of read requests responded to by this memory
system.physmem.num_reads::switch_cpus11.data          338                       # Number of read requests responded to by this memory
system.physmem.num_reads::switch_cpus12.inst           30                       # Number of read requests responded to by this memory
system.physmem.num_reads::switch_cpus12.data          338                       # Number of read requests responded to by this memory
system.physmem.num_reads::switch_cpus13.inst           24                       # Number of read requests responded to by this memory
system.physmem.num_reads::switch_cpus13.data          179                       # Number of read requests responded to by this memory
system.physmem.num_reads::switch_cpus14.inst           24                       # Number of read requests responded to by this memory
system.physmem.num_reads::switch_cpus14.data          179                       # Number of read requests responded to by this memory
system.physmem.num_reads::switch_cpus15.inst           11                       # Number of read requests responded to by this memory
system.physmem.num_reads::switch_cpus15.data          104                       # Number of read requests responded to by this memory
system.physmem.num_reads::total                  3319                       # Number of read requests responded to by this memory
system.physmem.num_writes::writebacks            1112                       # Number of write requests responded to by this memory
system.physmem.num_writes::functional               0                       # Number of write requests responded to by this memory
system.physmem.num_writes::interrupt                0                       # Number of write requests responded to by this memory
system.physmem.num_writes::switch_cpus00.dtb.walker            0                       # Number of write requests responded to by this memory
system.physmem.num_writes::switch_cpus00.itb.walker            0                       # Number of write requests responded to by this memory
system.physmem.num_writes::switch_cpus00.inst            0                       # Number of write requests responded to by this memory
system.physmem.num_writes::switch_cpus00.data            0                       # Number of write requests responded to by this memory
system.physmem.num_writes::switch_cpus01.dtb.walker            0                       # Number of write requests responded to by this memory
system.physmem.num_writes::switch_cpus01.itb.walker            0                       # Number of write requests responded to by this memory
system.physmem.num_writes::switch_cpus01.inst            0                       # Number of write requests responded to by this memory
system.physmem.num_writes::switch_cpus01.data            0                       # Number of write requests responded to by this memory
system.physmem.num_writes::switch_cpus02.dtb.walker            0                       # Number of write requests responded to by this memory
system.physmem.num_writes::switch_cpus02.itb.walker            0                       # Number of write requests responded to by this memory
system.physmem.num_writes::switch_cpus02.inst            0                       # Number of write requests responded to by this memory
system.physmem.num_writes::switch_cpus02.data            0                       # Number of write requests responded to by this memory
system.physmem.num_writes::switch_cpus03.dtb.walker            0                       # Number of write requests responded to by this memory
system.physmem.num_writes::switch_cpus03.itb.walker            0                       # Number of write requests responded to by this memory
system.physmem.num_writes::switch_cpus03.inst            0                       # Number of write requests responded to by this memory
system.physmem.num_writes::switch_cpus03.data            0                       # Number of write requests responded to by this memory
system.physmem.num_writes::switch_cpus04.dtb.walker            0                       # Number of write requests responded to by this memory
system.physmem.num_writes::switch_cpus04.itb.walker            0                       # Number of write requests responded to by this memory
system.physmem.num_writes::switch_cpus04.inst            0                       # Number of write requests responded to by this memory
system.physmem.num_writes::switch_cpus04.data            0                       # Number of write requests responded to by this memory
system.physmem.num_writes::switch_cpus05.dtb.walker            0                       # Number of write requests responded to by this memory
system.physmem.num_writes::switch_cpus05.itb.walker            0                       # Number of write requests responded to by this memory
system.physmem.num_writes::switch_cpus05.inst            0                       # Number of write requests responded to by this memory
system.physmem.num_writes::switch_cpus05.data            0                       # Number of write requests responded to by this memory
system.physmem.num_writes::switch_cpus06.dtb.walker            0                       # Number of write requests responded to by this memory
system.physmem.num_writes::switch_cpus06.itb.walker            0                       # Number of write requests responded to by this memory
system.physmem.num_writes::switch_cpus06.inst            0                       # Number of write requests responded to by this memory
system.physmem.num_writes::switch_cpus06.data            0                       # Number of write requests responded to by this memory
system.physmem.num_writes::switch_cpus07.dtb.walker            0                       # Number of write requests responded to by this memory
system.physmem.num_writes::switch_cpus07.itb.walker            0                       # Number of write requests responded to by this memory
system.physmem.num_writes::switch_cpus07.inst            0                       # Number of write requests responded to by this memory
system.physmem.num_writes::switch_cpus07.data            0                       # Number of write requests responded to by this memory
system.physmem.num_writes::switch_cpus08.dtb.walker            0                       # Number of write requests responded to by this memory
system.physmem.num_writes::switch_cpus08.itb.walker            0                       # Number of write requests responded to by this memory
system.physmem.num_writes::switch_cpus08.inst            0                       # Number of write requests responded to by this memory
system.physmem.num_writes::switch_cpus08.data            0                       # Number of write requests responded to by this memory
system.physmem.num_writes::switch_cpus09.dtb.walker            0                       # Number of write requests responded to by this memory
system.physmem.num_writes::switch_cpus09.itb.walker            0                       # Number of write requests responded to by this memory
system.physmem.num_writes::switch_cpus09.inst            0                       # Number of write requests responded to by this memory
system.physmem.num_writes::switch_cpus09.data            0                       # Number of write requests responded to by this memory
system.physmem.num_writes::switch_cpus10.dtb.walker            0                       # Number of write requests responded to by this memory
system.physmem.num_writes::switch_cpus10.itb.walker            0                       # Number of write requests responded to by this memory
system.physmem.num_writes::switch_cpus10.inst            0                       # Number of write requests responded to by this memory
system.physmem.num_writes::switch_cpus10.data            0                       # Number of write requests responded to by this memory
system.physmem.num_writes::switch_cpus11.dtb.walker            0                       # Number of write requests responded to by this memory
system.physmem.num_writes::switch_cpus11.itb.walker            0                       # Number of write requests responded to by this memory
system.physmem.num_writes::switch_cpus11.inst            0                       # Number of write requests responded to by this memory
system.physmem.num_writes::switch_cpus11.data            0                       # Number of write requests responded to by this memory
system.physmem.num_writes::switch_cpus12.dtb.walker            0                       # Number of write requests responded to by this memory
system.physmem.num_writes::switch_cpus12.itb.walker            0                       # Number of write requests responded to by this memory
system.physmem.num_writes::switch_cpus12.inst            0                       # Number of write requests responded to by this memory
system.physmem.num_writes::switch_cpus12.data            0                       # Number of write requests responded to by this memory
system.physmem.num_writes::switch_cpus13.dtb.walker            0                       # Number of write requests responded to by this memory
system.physmem.num_writes::switch_cpus13.itb.walker            0                       # Number of write requests responded to by this memory
system.physmem.num_writes::switch_cpus13.inst            0                       # Number of write requests responded to by this memory
system.physmem.num_writes::switch_cpus13.data            0                       # Number of write requests responded to by this memory
system.physmem.num_writes::switch_cpus14.dtb.walker            0                       # Number of write requests responded to by this memory
system.physmem.num_writes::switch_cpus14.itb.walker            0                       # Number of write requests responded to by this memory
system.physmem.num_writes::switch_cpus14.inst            0                       # Number of write requests responded to by this memory
system.physmem.num_writes::switch_cpus14.data            0                       # Number of write requests responded to by this memory
system.physmem.num_writes::switch_cpus15.dtb.walker            0                       # Number of write requests responded to by this memory
system.physmem.num_writes::switch_cpus15.itb.walker            0                       # Number of write requests responded to by this memory
system.physmem.num_writes::switch_cpus15.inst            0                       # Number of write requests responded to by this memory
system.physmem.num_writes::switch_cpus15.data            0                       # Number of write requests responded to by this memory
system.physmem.num_writes::cpu00.dtb.walker            0                       # Number of write requests responded to by this memory
system.physmem.num_writes::cpu00.itb.walker            0                       # Number of write requests responded to by this memory
system.physmem.num_writes::cpu00.inst               0                       # Number of write requests responded to by this memory
system.physmem.num_writes::cpu00.data               0                       # Number of write requests responded to by this memory
system.physmem.num_writes::cpu01.dtb.walker            0                       # Number of write requests responded to by this memory
system.physmem.num_writes::cpu01.itb.walker            0                       # Number of write requests responded to by this memory
system.physmem.num_writes::cpu01.inst               0                       # Number of write requests responded to by this memory
system.physmem.num_writes::cpu01.data               0                       # Number of write requests responded to by this memory
system.physmem.num_writes::cpu02.dtb.walker            0                       # Number of write requests responded to by this memory
system.physmem.num_writes::cpu02.itb.walker            0                       # Number of write requests responded to by this memory
system.physmem.num_writes::cpu02.inst               0                       # Number of write requests responded to by this memory
system.physmem.num_writes::cpu02.data               0                       # Number of write requests responded to by this memory
system.physmem.num_writes::cpu03.dtb.walker            0                       # Number of write requests responded to by this memory
system.physmem.num_writes::cpu03.itb.walker            0                       # Number of write requests responded to by this memory
system.physmem.num_writes::cpu03.inst               0                       # Number of write requests responded to by this memory
system.physmem.num_writes::cpu03.data               0                       # Number of write requests responded to by this memory
system.physmem.num_writes::cpu04.dtb.walker            0                       # Number of write requests responded to by this memory
system.physmem.num_writes::cpu04.itb.walker            0                       # Number of write requests responded to by this memory
system.physmem.num_writes::cpu04.inst               0                       # Number of write requests responded to by this memory
system.physmem.num_writes::cpu04.data               0                       # Number of write requests responded to by this memory
system.physmem.num_writes::cpu05.dtb.walker            0                       # Number of write requests responded to by this memory
system.physmem.num_writes::cpu05.itb.walker            0                       # Number of write requests responded to by this memory
system.physmem.num_writes::cpu05.inst               0                       # Number of write requests responded to by this memory
system.physmem.num_writes::cpu05.data               0                       # Number of write requests responded to by this memory
system.physmem.num_writes::cpu06.dtb.walker            0                       # Number of write requests responded to by this memory
system.physmem.num_writes::cpu06.itb.walker            0                       # Number of write requests responded to by this memory
system.physmem.num_writes::cpu06.inst               0                       # Number of write requests responded to by this memory
system.physmem.num_writes::cpu06.data               0                       # Number of write requests responded to by this memory
system.physmem.num_writes::cpu07.dtb.walker            0                       # Number of write requests responded to by this memory
system.physmem.num_writes::cpu07.itb.walker            0                       # Number of write requests responded to by this memory
system.physmem.num_writes::cpu07.inst               0                       # Number of write requests responded to by this memory
system.physmem.num_writes::cpu07.data               0                       # Number of write requests responded to by this memory
system.physmem.num_writes::cpu08.dtb.walker            0                       # Number of write requests responded to by this memory
system.physmem.num_writes::cpu08.itb.walker            0                       # Number of write requests responded to by this memory
system.physmem.num_writes::cpu08.inst               0                       # Number of write requests responded to by this memory
system.physmem.num_writes::cpu08.data               0                       # Number of write requests responded to by this memory
system.physmem.num_writes::cpu09.dtb.walker            0                       # Number of write requests responded to by this memory
system.physmem.num_writes::cpu09.itb.walker            0                       # Number of write requests responded to by this memory
system.physmem.num_writes::cpu09.inst               0                       # Number of write requests responded to by this memory
system.physmem.num_writes::cpu09.data               0                       # Number of write requests responded to by this memory
system.physmem.num_writes::cpu10.dtb.walker            0                       # Number of write requests responded to by this memory
system.physmem.num_writes::cpu10.itb.walker            0                       # Number of write requests responded to by this memory
system.physmem.num_writes::cpu10.inst               0                       # Number of write requests responded to by this memory
system.physmem.num_writes::cpu10.data               0                       # Number of write requests responded to by this memory
system.physmem.num_writes::cpu11.dtb.walker            0                       # Number of write requests responded to by this memory
system.physmem.num_writes::cpu11.itb.walker            0                       # Number of write requests responded to by this memory
system.physmem.num_writes::cpu11.inst               0                       # Number of write requests responded to by this memory
system.physmem.num_writes::cpu11.data               0                       # Number of write requests responded to by this memory
system.physmem.num_writes::cpu12.dtb.walker            0                       # Number of write requests responded to by this memory
system.physmem.num_writes::cpu12.itb.walker            0                       # Number of write requests responded to by this memory
system.physmem.num_writes::cpu12.inst               0                       # Number of write requests responded to by this memory
system.physmem.num_writes::cpu12.data               0                       # Number of write requests responded to by this memory
system.physmem.num_writes::cpu13.dtb.walker            0                       # Number of write requests responded to by this memory
system.physmem.num_writes::cpu13.itb.walker            0                       # Number of write requests responded to by this memory
system.physmem.num_writes::cpu13.inst               0                       # Number of write requests responded to by this memory
system.physmem.num_writes::cpu13.data               0                       # Number of write requests responded to by this memory
system.physmem.num_writes::cpu14.dtb.walker            0                       # Number of write requests responded to by this memory
system.physmem.num_writes::cpu14.itb.walker            0                       # Number of write requests responded to by this memory
system.physmem.num_writes::cpu14.inst               0                       # Number of write requests responded to by this memory
system.physmem.num_writes::cpu14.data               0                       # Number of write requests responded to by this memory
system.physmem.num_writes::cpu15.dtb.walker            0                       # Number of write requests responded to by this memory
system.physmem.num_writes::cpu15.itb.walker            0                       # Number of write requests responded to by this memory
system.physmem.num_writes::cpu15.inst               0                       # Number of write requests responded to by this memory
system.physmem.num_writes::cpu15.data               0                       # Number of write requests responded to by this memory
system.physmem.num_writes::total                 1112                       # Number of write requests responded to by this memory
system.physmem.bw_read::switch_cpus00.inst      2571569                       # Total read bandwidth from this memory (bytes/s)
system.physmem.bw_read::switch_cpus00.data     19179616                       # Total read bandwidth from this memory (bytes/s)
system.physmem.bw_read::switch_cpus01.inst      2571569                       # Total read bandwidth from this memory (bytes/s)
system.physmem.bw_read::switch_cpus01.data     19179616                       # Total read bandwidth from this memory (bytes/s)
system.physmem.bw_read::switch_cpus02.inst      1178636                       # Total read bandwidth from this memory (bytes/s)
system.physmem.bw_read::switch_cpus02.data     11143464                       # Total read bandwidth from this memory (bytes/s)
system.physmem.bw_read::switch_cpus03.inst      2893015                       # Total read bandwidth from this memory (bytes/s)
system.physmem.bw_read::switch_cpus03.data     13715033                       # Total read bandwidth from this memory (bytes/s)
system.physmem.bw_read::switch_cpus04.inst      3107312                       # Total read bandwidth from this memory (bytes/s)
system.physmem.bw_read::switch_cpus04.data     36001961                       # Total read bandwidth from this memory (bytes/s)
system.physmem.bw_read::switch_cpus05.inst      1178636                       # Total read bandwidth from this memory (bytes/s)
system.physmem.bw_read::switch_cpus05.data     11143464                       # Total read bandwidth from this memory (bytes/s)
system.physmem.bw_read::switch_cpus06.inst      2678717                       # Total read bandwidth from this memory (bytes/s)
system.physmem.bw_read::switch_cpus06.data     22822672                       # Total read bandwidth from this memory (bytes/s)
system.physmem.bw_read::switch_cpus07.inst      3000163                       # Total read bandwidth from this memory (bytes/s)
system.physmem.bw_read::switch_cpus07.data     14357925                       # Total read bandwidth from this memory (bytes/s)
system.physmem.bw_read::switch_cpus08.inst      1178636                       # Total read bandwidth from this memory (bytes/s)
system.physmem.bw_read::switch_cpus08.data     10929167                       # Total read bandwidth from this memory (bytes/s)
system.physmem.bw_read::switch_cpus09.inst      2678717                       # Total read bandwidth from this memory (bytes/s)
system.physmem.bw_read::switch_cpus09.data     22822672                       # Total read bandwidth from this memory (bytes/s)
system.physmem.bw_read::switch_cpus10.inst      2893015                       # Total read bandwidth from this memory (bytes/s)
system.physmem.bw_read::switch_cpus10.data     13715033                       # Total read bandwidth from this memory (bytes/s)
system.physmem.bw_read::switch_cpus11.inst      3214461                       # Total read bandwidth from this memory (bytes/s)
system.physmem.bw_read::switch_cpus11.data     36216259                       # Total read bandwidth from this memory (bytes/s)
system.physmem.bw_read::switch_cpus12.inst      3214461                       # Total read bandwidth from this memory (bytes/s)
system.physmem.bw_read::switch_cpus12.data     36216259                       # Total read bandwidth from this memory (bytes/s)
system.physmem.bw_read::switch_cpus13.inst      2571569                       # Total read bandwidth from this memory (bytes/s)
system.physmem.bw_read::switch_cpus13.data     19179616                       # Total read bandwidth from this memory (bytes/s)
system.physmem.bw_read::switch_cpus14.inst      2571569                       # Total read bandwidth from this memory (bytes/s)
system.physmem.bw_read::switch_cpus14.data     19179616                       # Total read bandwidth from this memory (bytes/s)
system.physmem.bw_read::switch_cpus15.inst      1178636                       # Total read bandwidth from this memory (bytes/s)
system.physmem.bw_read::switch_cpus15.data     11143464                       # Total read bandwidth from this memory (bytes/s)
system.physmem.bw_read::total               355626517                       # Total read bandwidth from this memory (bytes/s)
system.physmem.bw_inst_read::switch_cpus00.inst      2571569                       # Instruction read bandwidth from this memory (bytes/s)
system.physmem.bw_inst_read::switch_cpus01.inst      2571569                       # Instruction read bandwidth from this memory (bytes/s)
system.physmem.bw_inst_read::switch_cpus02.inst      1178636                       # Instruction read bandwidth from this memory (bytes/s)
system.physmem.bw_inst_read::switch_cpus03.inst      2893015                       # Instruction read bandwidth from this memory (bytes/s)
system.physmem.bw_inst_read::switch_cpus04.inst      3107312                       # Instruction read bandwidth from this memory (bytes/s)
system.physmem.bw_inst_read::switch_cpus05.inst      1178636                       # Instruction read bandwidth from this memory (bytes/s)
system.physmem.bw_inst_read::switch_cpus06.inst      2678717                       # Instruction read bandwidth from this memory (bytes/s)
system.physmem.bw_inst_read::switch_cpus07.inst      3000163                       # Instruction read bandwidth from this memory (bytes/s)
system.physmem.bw_inst_read::switch_cpus08.inst      1178636                       # Instruction read bandwidth from this memory (bytes/s)
system.physmem.bw_inst_read::switch_cpus09.inst      2678717                       # Instruction read bandwidth from this memory (bytes/s)
system.physmem.bw_inst_read::switch_cpus10.inst      2893015                       # Instruction read bandwidth from this memory (bytes/s)
system.physmem.bw_inst_read::switch_cpus11.inst      3214461                       # Instruction read bandwidth from this memory (bytes/s)
system.physmem.bw_inst_read::switch_cpus12.inst      3214461                       # Instruction read bandwidth from this memory (bytes/s)
system.physmem.bw_inst_read::switch_cpus13.inst      2571569                       # Instruction read bandwidth from this memory (bytes/s)
system.physmem.bw_inst_read::switch_cpus14.inst      2571569                       # Instruction read bandwidth from this memory (bytes/s)
system.physmem.bw_inst_read::switch_cpus15.inst      1178636                       # Instruction read bandwidth from this memory (bytes/s)
system.physmem.bw_inst_read::total           38680679                       # Instruction read bandwidth from this memory (bytes/s)
system.physmem.bw_write::writebacks         119149348                       # Write bandwidth from this memory (bytes/s)
system.physmem.bw_write::total              119149348                       # Write bandwidth from this memory (bytes/s)
system.physmem.bw_total::writebacks         119149348                       # Total bandwidth to/from this memory (bytes/s)
system.physmem.bw_total::switch_cpus00.inst      2571569                       # Total bandwidth to/from this memory (bytes/s)
system.physmem.bw_total::switch_cpus00.data     19179616                       # Total bandwidth to/from this memory (bytes/s)
system.physmem.bw_total::switch_cpus01.inst      2571569                       # Total bandwidth to/from this memory (bytes/s)
system.physmem.bw_total::switch_cpus01.data     19179616                       # Total bandwidth to/from this memory (bytes/s)
system.physmem.bw_total::switch_cpus02.inst      1178636                       # Total bandwidth to/from this memory (bytes/s)
system.physmem.bw_total::switch_cpus02.data     11143464                       # Total bandwidth to/from this memory (bytes/s)
system.physmem.bw_total::switch_cpus03.inst      2893015                       # Total bandwidth to/from this memory (bytes/s)
system.physmem.bw_total::switch_cpus03.data     13715033                       # Total bandwidth to/from this memory (bytes/s)
system.physmem.bw_total::switch_cpus04.inst      3107312                       # Total bandwidth to/from this memory (bytes/s)
system.physmem.bw_total::switch_cpus04.data     36001961                       # Total bandwidth to/from this memory (bytes/s)
system.physmem.bw_total::switch_cpus05.inst      1178636                       # Total bandwidth to/from this memory (bytes/s)
system.physmem.bw_total::switch_cpus05.data     11143464                       # Total bandwidth to/from this memory (bytes/s)
system.physmem.bw_total::switch_cpus06.inst      2678717                       # Total bandwidth to/from this memory (bytes/s)
system.physmem.bw_total::switch_cpus06.data     22822672                       # Total bandwidth to/from this memory (bytes/s)
system.physmem.bw_total::switch_cpus07.inst      3000163                       # Total bandwidth to/from this memory (bytes/s)
system.physmem.bw_total::switch_cpus07.data     14357925                       # Total bandwidth to/from this memory (bytes/s)
system.physmem.bw_total::switch_cpus08.inst      1178636                       # Total bandwidth to/from this memory (bytes/s)
system.physmem.bw_total::switch_cpus08.data     10929167                       # Total bandwidth to/from this memory (bytes/s)
system.physmem.bw_total::switch_cpus09.inst      2678717                       # Total bandwidth to/from this memory (bytes/s)
system.physmem.bw_total::switch_cpus09.data     22822672                       # Total bandwidth to/from this memory (bytes/s)
system.physmem.bw_total::switch_cpus10.inst      2893015                       # Total bandwidth to/from this memory (bytes/s)
system.physmem.bw_total::switch_cpus10.data     13715033                       # Total bandwidth to/from this memory (bytes/s)
system.physmem.bw_total::switch_cpus11.inst      3214461                       # Total bandwidth to/from this memory (bytes/s)
system.physmem.bw_total::switch_cpus11.data     36216259                       # Total bandwidth to/from this memory (bytes/s)
system.physmem.bw_total::switch_cpus12.inst      3214461                       # Total bandwidth to/from this memory (bytes/s)
system.physmem.bw_total::switch_cpus12.data     36216259                       # Total bandwidth to/from this memory (bytes/s)
system.physmem.bw_total::switch_cpus13.inst      2571569                       # Total bandwidth to/from this memory (bytes/s)
system.physmem.bw_total::switch_cpus13.data     19179616                       # Total bandwidth to/from this memory (bytes/s)
system.physmem.bw_total::switch_cpus14.inst      2571569                       # Total bandwidth to/from this memory (bytes/s)
system.physmem.bw_total::switch_cpus14.data     19179616                       # Total bandwidth to/from this memory (bytes/s)
system.physmem.bw_total::switch_cpus15.inst      1178636                       # Total bandwidth to/from this memory (bytes/s)
system.physmem.bw_total::switch_cpus15.data     11143464                       # Total bandwidth to/from this memory (bytes/s)
system.physmem.bw_total::total              474775865                       # Total bandwidth to/from this memory (bytes/s)
system.switch_cpus00.dtb.inst_hits                  0                       # ITB inst hits
system.switch_cpus00.dtb.inst_misses                0                       # ITB inst misses
system.switch_cpus00.dtb.read_hits                  0                       # DTB read hits
system.switch_cpus00.dtb.read_misses                0                       # DTB read misses
system.switch_cpus00.dtb.write_hits                 0                       # DTB write hits
system.switch_cpus00.dtb.write_misses               0                       # DTB write misses
system.switch_cpus00.dtb.flush_tlb                  0                       # Number of times complete TLB was flushed
system.switch_cpus00.dtb.flush_tlb_mva              0                       # Number of times TLB was flushed by MVA
system.switch_cpus00.dtb.flush_tlb_mva_asid            0                       # Number of times TLB was flushed by MVA & ASID
system.switch_cpus00.dtb.flush_tlb_asid             0                       # Number of times TLB was flushed by ASID
system.switch_cpus00.dtb.flush_entries              0                       # Number of entries that have been flushed from TLB
system.switch_cpus00.dtb.align_faults               0                       # Number of TLB faults due to alignment restrictions
system.switch_cpus00.dtb.prefetch_faults            0                       # Number of TLB faults due to prefetch
system.switch_cpus00.dtb.domain_faults              0                       # Number of TLB faults due to domain restrictions
system.switch_cpus00.dtb.perms_faults               0                       # Number of TLB faults due to permissions restrictions
system.switch_cpus00.dtb.read_accesses              0                       # DTB read accesses
system.switch_cpus00.dtb.write_accesses             0                       # DTB write accesses
system.switch_cpus00.dtb.inst_accesses              0                       # ITB inst accesses
system.switch_cpus00.dtb.hits                       0                       # DTB hits
system.switch_cpus00.dtb.misses                     0                       # DTB misses
system.switch_cpus00.dtb.accesses                   0                       # DTB accesses
system.switch_cpus00.itb.inst_hits                  0                       # ITB inst hits
system.switch_cpus00.itb.inst_misses                0                       # ITB inst misses
system.switch_cpus00.itb.read_hits                  0                       # DTB read hits
system.switch_cpus00.itb.read_misses                0                       # DTB read misses
system.switch_cpus00.itb.write_hits                 0                       # DTB write hits
system.switch_cpus00.itb.write_misses               0                       # DTB write misses
system.switch_cpus00.itb.flush_tlb                  0                       # Number of times complete TLB was flushed
system.switch_cpus00.itb.flush_tlb_mva              0                       # Number of times TLB was flushed by MVA
system.switch_cpus00.itb.flush_tlb_mva_asid            0                       # Number of times TLB was flushed by MVA & ASID
system.switch_cpus00.itb.flush_tlb_asid             0                       # Number of times TLB was flushed by ASID
system.switch_cpus00.itb.flush_entries              0                       # Number of entries that have been flushed from TLB
system.switch_cpus00.itb.align_faults               0                       # Number of TLB faults due to alignment restrictions
system.switch_cpus00.itb.prefetch_faults            0                       # Number of TLB faults due to prefetch
system.switch_cpus00.itb.domain_faults              0                       # Number of TLB faults due to domain restrictions
system.switch_cpus00.itb.perms_faults               0                       # Number of TLB faults due to permissions restrictions
system.switch_cpus00.itb.read_accesses              0                       # DTB read accesses
system.switch_cpus00.itb.write_accesses             0                       # DTB write accesses
system.switch_cpus00.itb.inst_accesses              0                       # ITB inst accesses
system.switch_cpus00.itb.hits                       0                       # DTB hits
system.switch_cpus00.itb.misses                     0                       # DTB misses
system.switch_cpus00.itb.accesses                   0                       # DTB accesses
system.cpu00.workload.num_syscalls                  1                       # Number of system calls
system.switch_cpus00.numCycles                2864753                       # number of cpu cycles simulated
system.switch_cpus00.numWorkItemsStarted            0                       # number of work items this cpu started
system.switch_cpus00.numWorkItemsCompleted            0                       # number of work items this cpu completed
system.switch_cpus00.BPredUnit.lookups         210086                       # Number of BP lookups
system.switch_cpus00.BPredUnit.condPredicted       171896                       # Number of conditional branches predicted
system.switch_cpus00.BPredUnit.condIncorrect        22312                       # Number of conditional branches incorrect
system.switch_cpus00.BPredUnit.BTBLookups        87168                       # Number of BTB lookups
system.switch_cpus00.BPredUnit.BTBHits          80056                       # Number of BTB hits
system.switch_cpus00.BPredUnit.BTBCorrect            0                       # Number of correct BTB predictions (this stat may not work properly.
system.switch_cpus00.BPredUnit.usedRAS          21309                       # Number of times the RAS was used to get a target.
system.switch_cpus00.BPredUnit.RASInCorrect         1033                       # Number of incorrect RAS predictions.
system.switch_cpus00.fetch.icacheStallCycles      2008130                       # Number of cycles fetch is stalled on an Icache miss
system.switch_cpus00.fetch.Insts              1199186                       # Number of instructions fetch has processed
system.switch_cpus00.fetch.Branches            210086                       # Number of branches that fetch encountered
system.switch_cpus00.fetch.predictedBranches       101365                       # Number of branches that fetch has predicted taken
system.switch_cpus00.fetch.Cycles              262235                       # Number of cycles fetch has run and was not squashing or blocked
system.switch_cpus00.fetch.SquashCycles         64198                       # Number of cycles fetch has spent squashing
system.switch_cpus00.fetch.BlockedCycles       211641                       # Number of cycles fetch has spent blocked
system.switch_cpus00.fetch.CacheLines          125299                       # Number of cache lines fetched
system.switch_cpus00.fetch.IcacheSquashes        22055                       # Number of outstanding Icache misses that were squashed
system.switch_cpus00.fetch.rateDist::samples      2523518                       # Number of instructions fetched each cycle (Total)
system.switch_cpus00.fetch.rateDist::mean     0.581916                       # Number of instructions fetched each cycle (Total)
system.switch_cpus00.fetch.rateDist::stdev     1.920439                       # Number of instructions fetched each cycle (Total)
system.switch_cpus00.fetch.rateDist::underflows            0      0.00%      0.00% # Number of instructions fetched each cycle (Total)
system.switch_cpus00.fetch.rateDist::0        2261283     89.61%     89.61% # Number of instructions fetched each cycle (Total)
system.switch_cpus00.fetch.rateDist::1          27848      1.10%     90.71% # Number of instructions fetched each cycle (Total)
system.switch_cpus00.fetch.rateDist::2          32178      1.28%     91.99% # Number of instructions fetched each cycle (Total)
system.switch_cpus00.fetch.rateDist::3          17825      0.71%     92.69% # Number of instructions fetched each cycle (Total)
system.switch_cpus00.fetch.rateDist::4          20155      0.80%     93.49% # Number of instructions fetched each cycle (Total)
system.switch_cpus00.fetch.rateDist::5          11761      0.47%     93.96% # Number of instructions fetched each cycle (Total)
system.switch_cpus00.fetch.rateDist::6           7806      0.31%     94.27% # Number of instructions fetched each cycle (Total)
system.switch_cpus00.fetch.rateDist::7          20760      0.82%     95.09% # Number of instructions fetched each cycle (Total)
system.switch_cpus00.fetch.rateDist::8         123902      4.91%    100.00% # Number of instructions fetched each cycle (Total)
system.switch_cpus00.fetch.rateDist::overflows            0      0.00%    100.00% # Number of instructions fetched each cycle (Total)
system.switch_cpus00.fetch.rateDist::min_value            0                       # Number of instructions fetched each cycle (Total)
system.switch_cpus00.fetch.rateDist::max_value            8                       # Number of instructions fetched each cycle (Total)
system.switch_cpus00.fetch.rateDist::total      2523518                       # Number of instructions fetched each cycle (Total)
system.switch_cpus00.fetch.branchRate        0.073335                       # Number of branch fetches per cycle
system.switch_cpus00.fetch.rate              0.418600                       # Number of inst fetches per cycle
system.switch_cpus00.decode.IdleCycles        1991526                       # Number of cycles decode is idle
system.switch_cpus00.decode.BlockedCycles       228896                       # Number of cycles decode is blocked
system.switch_cpus00.decode.RunCycles          259901                       # Number of cycles decode is running
system.switch_cpus00.decode.UnblockCycles         2075                       # Number of cycles decode is unblocking
system.switch_cpus00.decode.SquashCycles        41116                       # Number of cycles decode is squashing
system.switch_cpus00.decode.BranchResolved        34252                       # Number of times decode resolved a branch
system.switch_cpus00.decode.BranchMispred          397                       # Number of times decode detected a branch misprediction
system.switch_cpus00.decode.DecodedInsts      1463330                       # Number of instructions handled by decode
system.switch_cpus00.decode.SquashedInsts         2154                       # Number of squashed instructions handled by decode
system.switch_cpus00.rename.SquashCycles        41116                       # Number of cycles rename is squashing
system.switch_cpus00.rename.IdleCycles        1995048                       # Number of cycles rename is idle
system.switch_cpus00.rename.BlockCycles         18827                       # Number of cycles rename is blocking
system.switch_cpus00.rename.serializeStallCycles       201051                       # count of cycles rename stalled for serializing inst
system.switch_cpus00.rename.RunCycles          258461                       # Number of cycles rename is running
system.switch_cpus00.rename.UnblockCycles         9011                       # Number of cycles rename is unblocking
system.switch_cpus00.rename.RenamedInsts      1461089                       # Number of instructions processed by rename
system.switch_cpus00.rename.ROBFullEvents            8                       # Number of times rename has blocked due to ROB full
system.switch_cpus00.rename.IQFullEvents         2008                       # Number of times rename has blocked due to IQ full
system.switch_cpus00.rename.LSQFullEvents         4387                       # Number of times rename has blocked due to LSQ full
system.switch_cpus00.rename.RenamedOperands      2031978                       # Number of destination operands rename has renamed
system.switch_cpus00.rename.RenameLookups      6800982                       # Number of register rename lookups that rename has made
system.switch_cpus00.rename.int_rename_lookups      6800982                       # Number of integer rename lookups
system.switch_cpus00.rename.CommittedMaps      1703093                       # Number of HB maps that are committed
system.switch_cpus00.rename.UndoneMaps         328872                       # Number of HB maps that are undone due to squashing
system.switch_cpus00.rename.serializingInsts          391                       # count of serializing insts renamed
system.switch_cpus00.rename.tempSerializingInsts          224                       # count of temporary serializing insts renamed
system.switch_cpus00.rename.skidInsts           26274                       # count of insts added to the skid buffer
system.switch_cpus00.memDep0.insertedLoads       140413                       # Number of loads inserted to the mem dependence unit.
system.switch_cpus00.memDep0.insertedStores        75401                       # Number of stores inserted to the mem dependence unit.
system.switch_cpus00.memDep0.conflictingLoads         1864                       # Number of conflicting loads.
system.switch_cpus00.memDep0.conflictingStores        15790                       # Number of conflicting stores.
system.switch_cpus00.iq.iqInstsAdded          1457079                       # Number of instructions added to the IQ (excludes non-spec)
system.switch_cpus00.iq.iqNonSpecInstsAdded          393                       # Number of non-speculative instructions added to the IQ
system.switch_cpus00.iq.iqInstsIssued         1367765                       # Number of instructions issued
system.switch_cpus00.iq.iqSquashedInstsIssued         1978                       # Number of squashed instructions issued
system.switch_cpus00.iq.iqSquashedInstsExamined       200427                       # Number of squashed instructions iterated over during squash; mainly for profiling
system.switch_cpus00.iq.iqSquashedOperandsExamined       469210                       # Number of squashed operands that are examined and possibly removed from graph
system.switch_cpus00.iq.iqSquashedNonSpecRemoved           56                       # Number of squashed non-spec instructions that were removed
system.switch_cpus00.iq.issued_per_cycle::samples      2523518                       # Number of insts issued each cycle
system.switch_cpus00.iq.issued_per_cycle::mean     0.542007                       # Number of insts issued each cycle
system.switch_cpus00.iq.issued_per_cycle::stdev     1.236525                       # Number of insts issued each cycle
system.switch_cpus00.iq.issued_per_cycle::underflows            0      0.00%      0.00% # Number of insts issued each cycle
system.switch_cpus00.iq.issued_per_cycle::0      1948085     77.20%     77.20% # Number of insts issued each cycle
system.switch_cpus00.iq.issued_per_cycle::1       230856      9.15%     86.35% # Number of insts issued each cycle
system.switch_cpus00.iq.issued_per_cycle::2       124525      4.93%     91.28% # Number of insts issued each cycle
system.switch_cpus00.iq.issued_per_cycle::3        86093      3.41%     94.69% # Number of insts issued each cycle
system.switch_cpus00.iq.issued_per_cycle::4        75189      2.98%     97.67% # Number of insts issued each cycle
system.switch_cpus00.iq.issued_per_cycle::5        38827      1.54%     99.21% # Number of insts issued each cycle
system.switch_cpus00.iq.issued_per_cycle::6         9381      0.37%     99.58% # Number of insts issued each cycle
system.switch_cpus00.iq.issued_per_cycle::7         6093      0.24%     99.82% # Number of insts issued each cycle
system.switch_cpus00.iq.issued_per_cycle::8         4469      0.18%    100.00% # Number of insts issued each cycle
system.switch_cpus00.iq.issued_per_cycle::overflows            0      0.00%    100.00% # Number of insts issued each cycle
system.switch_cpus00.iq.issued_per_cycle::min_value            0                       # Number of insts issued each cycle
system.switch_cpus00.iq.issued_per_cycle::max_value            8                       # Number of insts issued each cycle
system.switch_cpus00.iq.issued_per_cycle::total      2523518                       # Number of insts issued each cycle
system.switch_cpus00.iq.fu_full::No_OpClass            0      0.00%      0.00% # attempts to use FU when none available
system.switch_cpus00.iq.fu_full::IntAlu           346     11.40%     11.40% # attempts to use FU when none available
system.switch_cpus00.iq.fu_full::IntMult            0      0.00%     11.40% # attempts to use FU when none available
system.switch_cpus00.iq.fu_full::IntDiv             0      0.00%     11.40% # attempts to use FU when none available
system.switch_cpus00.iq.fu_full::FloatAdd            0      0.00%     11.40% # attempts to use FU when none available
system.switch_cpus00.iq.fu_full::FloatCmp            0      0.00%     11.40% # attempts to use FU when none available
system.switch_cpus00.iq.fu_full::FloatCvt            0      0.00%     11.40% # attempts to use FU when none available
system.switch_cpus00.iq.fu_full::FloatMult            0      0.00%     11.40% # attempts to use FU when none available
system.switch_cpus00.iq.fu_full::FloatDiv            0      0.00%     11.40% # attempts to use FU when none available
system.switch_cpus00.iq.fu_full::FloatSqrt            0      0.00%     11.40% # attempts to use FU when none available
system.switch_cpus00.iq.fu_full::SimdAdd            0      0.00%     11.40% # attempts to use FU when none available
system.switch_cpus00.iq.fu_full::SimdAddAcc            0      0.00%     11.40% # attempts to use FU when none available
system.switch_cpus00.iq.fu_full::SimdAlu            0      0.00%     11.40% # attempts to use FU when none available
system.switch_cpus00.iq.fu_full::SimdCmp            0      0.00%     11.40% # attempts to use FU when none available
system.switch_cpus00.iq.fu_full::SimdCvt            0      0.00%     11.40% # attempts to use FU when none available
system.switch_cpus00.iq.fu_full::SimdMisc            0      0.00%     11.40% # attempts to use FU when none available
system.switch_cpus00.iq.fu_full::SimdMult            0      0.00%     11.40% # attempts to use FU when none available
system.switch_cpus00.iq.fu_full::SimdMultAcc            0      0.00%     11.40% # attempts to use FU when none available
system.switch_cpus00.iq.fu_full::SimdShift            0      0.00%     11.40% # attempts to use FU when none available
system.switch_cpus00.iq.fu_full::SimdShiftAcc            0      0.00%     11.40% # attempts to use FU when none available
system.switch_cpus00.iq.fu_full::SimdSqrt            0      0.00%     11.40% # attempts to use FU when none available
system.switch_cpus00.iq.fu_full::SimdFloatAdd            0      0.00%     11.40% # attempts to use FU when none available
system.switch_cpus00.iq.fu_full::SimdFloatAlu            0      0.00%     11.40% # attempts to use FU when none available
system.switch_cpus00.iq.fu_full::SimdFloatCmp            0      0.00%     11.40% # attempts to use FU when none available
system.switch_cpus00.iq.fu_full::SimdFloatCvt            0      0.00%     11.40% # attempts to use FU when none available
system.switch_cpus00.iq.fu_full::SimdFloatDiv            0      0.00%     11.40% # attempts to use FU when none available
system.switch_cpus00.iq.fu_full::SimdFloatMisc            0      0.00%     11.40% # attempts to use FU when none available
system.switch_cpus00.iq.fu_full::SimdFloatMult            0      0.00%     11.40% # attempts to use FU when none available
system.switch_cpus00.iq.fu_full::SimdFloatMultAcc            0      0.00%     11.40% # attempts to use FU when none available
system.switch_cpus00.iq.fu_full::SimdFloatSqrt            0      0.00%     11.40% # attempts to use FU when none available
system.switch_cpus00.iq.fu_full::MemRead         1331     43.86%     55.26% # attempts to use FU when none available
system.switch_cpus00.iq.fu_full::MemWrite         1358     44.74%    100.00% # attempts to use FU when none available
system.switch_cpus00.iq.fu_full::IprAccess            0      0.00%    100.00% # attempts to use FU when none available
system.switch_cpus00.iq.fu_full::InstPrefetch            0      0.00%    100.00% # attempts to use FU when none available
system.switch_cpus00.iq.FU_type_0::No_OpClass            0      0.00%      0.00% # Type of FU issued
system.switch_cpus00.iq.FU_type_0::IntAlu      1145013     83.71%     83.71% # Type of FU issued
system.switch_cpus00.iq.FU_type_0::IntMult        21293      1.56%     85.27% # Type of FU issued
system.switch_cpus00.iq.FU_type_0::IntDiv            0      0.00%     85.27% # Type of FU issued
system.switch_cpus00.iq.FU_type_0::FloatAdd            0      0.00%     85.27% # Type of FU issued
system.switch_cpus00.iq.FU_type_0::FloatCmp            0      0.00%     85.27% # Type of FU issued
system.switch_cpus00.iq.FU_type_0::FloatCvt            0      0.00%     85.27% # Type of FU issued
system.switch_cpus00.iq.FU_type_0::FloatMult            0      0.00%     85.27% # Type of FU issued
system.switch_cpus00.iq.FU_type_0::FloatDiv            0      0.00%     85.27% # Type of FU issued
system.switch_cpus00.iq.FU_type_0::FloatSqrt            0      0.00%     85.27% # Type of FU issued
system.switch_cpus00.iq.FU_type_0::SimdAdd            0      0.00%     85.27% # Type of FU issued
system.switch_cpus00.iq.FU_type_0::SimdAddAcc            0      0.00%     85.27% # Type of FU issued
system.switch_cpus00.iq.FU_type_0::SimdAlu            0      0.00%     85.27% # Type of FU issued
system.switch_cpus00.iq.FU_type_0::SimdCmp            0      0.00%     85.27% # Type of FU issued
system.switch_cpus00.iq.FU_type_0::SimdCvt            0      0.00%     85.27% # Type of FU issued
system.switch_cpus00.iq.FU_type_0::SimdMisc            0      0.00%     85.27% # Type of FU issued
system.switch_cpus00.iq.FU_type_0::SimdMult            0      0.00%     85.27% # Type of FU issued
system.switch_cpus00.iq.FU_type_0::SimdMultAcc            0      0.00%     85.27% # Type of FU issued
system.switch_cpus00.iq.FU_type_0::SimdShift            0      0.00%     85.27% # Type of FU issued
system.switch_cpus00.iq.FU_type_0::SimdShiftAcc            0      0.00%     85.27% # Type of FU issued
system.switch_cpus00.iq.FU_type_0::SimdSqrt            0      0.00%     85.27% # Type of FU issued
system.switch_cpus00.iq.FU_type_0::SimdFloatAdd            0      0.00%     85.27% # Type of FU issued
system.switch_cpus00.iq.FU_type_0::SimdFloatAlu            0      0.00%     85.27% # Type of FU issued
system.switch_cpus00.iq.FU_type_0::SimdFloatCmp            0      0.00%     85.27% # Type of FU issued
system.switch_cpus00.iq.FU_type_0::SimdFloatCvt            0      0.00%     85.27% # Type of FU issued
system.switch_cpus00.iq.FU_type_0::SimdFloatDiv            0      0.00%     85.27% # Type of FU issued
system.switch_cpus00.iq.FU_type_0::SimdFloatMisc          166      0.01%     85.28% # Type of FU issued
system.switch_cpus00.iq.FU_type_0::SimdFloatMult            0      0.00%     85.28% # Type of FU issued
system.switch_cpus00.iq.FU_type_0::SimdFloatMultAcc            0      0.00%     85.28% # Type of FU issued
system.switch_cpus00.iq.FU_type_0::SimdFloatSqrt            0      0.00%     85.28% # Type of FU issued
system.switch_cpus00.iq.FU_type_0::MemRead       126624      9.26%     94.54% # Type of FU issued
system.switch_cpus00.iq.FU_type_0::MemWrite        74669      5.46%    100.00% # Type of FU issued
system.switch_cpus00.iq.FU_type_0::IprAccess            0      0.00%    100.00% # Type of FU issued
system.switch_cpus00.iq.FU_type_0::InstPrefetch            0      0.00%    100.00% # Type of FU issued
system.switch_cpus00.iq.FU_type_0::total      1367765                       # Type of FU issued
system.switch_cpus00.iq.rate                 0.477446                       # Inst issue rate
system.switch_cpus00.iq.fu_busy_cnt              3035                       # FU busy when requested
system.switch_cpus00.iq.fu_busy_rate         0.002219                       # FU busy rate (busy events/executed inst)
system.switch_cpus00.iq.int_inst_queue_reads      5264060                       # Number of integer instruction queue reads
system.switch_cpus00.iq.int_inst_queue_writes      1657940                       # Number of integer instruction queue writes
system.switch_cpus00.iq.int_inst_queue_wakeup_accesses      1342995                       # Number of integer instruction queue wakeup accesses
system.switch_cpus00.iq.fp_inst_queue_reads            0                       # Number of floating instruction queue reads
system.switch_cpus00.iq.fp_inst_queue_writes            0                       # Number of floating instruction queue writes
system.switch_cpus00.iq.fp_inst_queue_wakeup_accesses            0                       # Number of floating instruction queue wakeup accesses
system.switch_cpus00.iq.int_alu_accesses      1370800                       # Number of integer alu accesses
system.switch_cpus00.iq.fp_alu_accesses             0                       # Number of floating point alu accesses
system.switch_cpus00.iew.lsq.thread0.forwLoads         3360                       # Number of loads that had data forwarded from stores
system.switch_cpus00.iew.lsq.thread0.invAddrLoads            0                       # Number of loads ignored due to an invalid address
system.switch_cpus00.iew.lsq.thread0.squashedLoads        27532                       # Number of loads squashed
system.switch_cpus00.iew.lsq.thread0.ignoredResponses            4                       # Number of memory responses ignored because the instruction is squashed
system.switch_cpus00.iew.lsq.thread0.memOrderViolation           42                       # Number of memory ordering violations
system.switch_cpus00.iew.lsq.thread0.squashedStores         2335                       # Number of stores squashed
system.switch_cpus00.iew.lsq.thread0.invAddrSwpfs            0                       # Number of software prefetches ignored due to an invalid address
system.switch_cpus00.iew.lsq.thread0.blockedLoads            0                       # Number of blocked loads due to partial load-store forwarding
system.switch_cpus00.iew.lsq.thread0.rescheduledLoads           83                       # Number of loads that were rescheduled
system.switch_cpus00.iew.lsq.thread0.cacheBlocked            0                       # Number of times an access to memory failed due to the cache being blocked
system.switch_cpus00.iew.iewIdleCycles              0                       # Number of cycles IEW is idle
system.switch_cpus00.iew.iewSquashCycles        41116                       # Number of cycles IEW is squashing
system.switch_cpus00.iew.iewBlockCycles         14011                       # Number of cycles IEW is blocking
system.switch_cpus00.iew.iewUnblockCycles         1215                       # Number of cycles IEW is unblocking
system.switch_cpus00.iew.iewDispatchedInsts      1457479                       # Number of instructions dispatched to IQ
system.switch_cpus00.iew.iewDispSquashedInsts           16                       # Number of squashed instructions skipped by dispatch
system.switch_cpus00.iew.iewDispLoadInsts       140413                       # Number of dispatched load instructions
system.switch_cpus00.iew.iewDispStoreInsts        75401                       # Number of dispatched store instructions
system.switch_cpus00.iew.iewDispNonSpecInsts          225                       # Number of dispatched non-speculative instructions
system.switch_cpus00.iew.iewIQFullEvents          846                       # Number of times the IQ has become full, causing a stall
system.switch_cpus00.iew.iewLSQFullEvents            0                       # Number of times the LSQ has become full, causing a stall
system.switch_cpus00.iew.memOrderViolationEvents           42                       # Number of memory order violations
system.switch_cpus00.iew.predictedTakenIncorrect        12179                       # Number of branches that were predicted taken incorrectly
system.switch_cpus00.iew.predictedNotTakenIncorrect        13007                       # Number of branches that were predicted not taken incorrectly
system.switch_cpus00.iew.branchMispredicts        25186                       # Number of branch mispredicts detected at execute
system.switch_cpus00.iew.iewExecutedInsts      1346032                       # Number of executed instructions
system.switch_cpus00.iew.iewExecLoadInsts       118542                       # Number of load instructions executed
system.switch_cpus00.iew.iewExecSquashedInsts        21732                       # Number of squashed instructions skipped in execute
system.switch_cpus00.iew.exec_swp                   0                       # number of swp insts executed
system.switch_cpus00.iew.exec_nop                   7                       # number of nop insts executed
system.switch_cpus00.iew.exec_refs             193168                       # number of memory reference insts executed
system.switch_cpus00.iew.exec_branches         187687                       # Number of branches executed
system.switch_cpus00.iew.exec_stores            74626                       # Number of stores executed
system.switch_cpus00.iew.exec_rate           0.469860                       # Inst execution rate
system.switch_cpus00.iew.wb_sent              1343086                       # cumulative count of insts sent to commit
system.switch_cpus00.iew.wb_count             1342995                       # cumulative count of insts written-back
system.switch_cpus00.iew.wb_producers          798750                       # num instructions producing a value
system.switch_cpus00.iew.wb_consumers         2092554                       # num instructions consuming a value
system.switch_cpus00.iew.wb_penalized               0                       # number of instrctions required to write to 'other' IQ
system.switch_cpus00.iew.wb_rate             0.468800                       # insts written-back per cycle
system.switch_cpus00.iew.wb_fanout           0.381711                       # average fanout of values written-back
system.switch_cpus00.iew.wb_penalized_rate            0                       # fraction of instructions written-back that wrote to 'other' IQ
system.switch_cpus00.commit.commitCommittedInsts      1000002                       # The number of committed instructions
system.switch_cpus00.commit.commitCommittedOps      1226889                       # The number of committed instructions
system.switch_cpus00.commit.commitSquashedInsts       230594                       # The number of squashed insts skipped by commit
system.switch_cpus00.commit.commitNonSpecStalls          337                       # The number of times commit has been forced to stall to communicate backwards
system.switch_cpus00.commit.branchMispredicts        22261                       # The number of times a branch was mispredicted
system.switch_cpus00.commit.committed_per_cycle::samples      2482402                       # Number of insts commited each cycle
system.switch_cpus00.commit.committed_per_cycle::mean     0.494235                       # Number of insts commited each cycle
system.switch_cpus00.commit.committed_per_cycle::stdev     1.308976                       # Number of insts commited each cycle
system.switch_cpus00.commit.committed_per_cycle::underflows            0      0.00%      0.00% # Number of insts commited each cycle
system.switch_cpus00.commit.committed_per_cycle::0      1980979     79.80%     79.80% # Number of insts commited each cycle
system.switch_cpus00.commit.committed_per_cycle::1       232711      9.37%     89.18% # Number of insts commited each cycle
system.switch_cpus00.commit.committed_per_cycle::2        97439      3.93%     93.10% # Number of insts commited each cycle
system.switch_cpus00.commit.committed_per_cycle::3        58555      2.36%     95.46% # Number of insts commited each cycle
system.switch_cpus00.commit.committed_per_cycle::4        40184      1.62%     97.08% # Number of insts commited each cycle
system.switch_cpus00.commit.committed_per_cycle::5        26391      1.06%     98.14% # Number of insts commited each cycle
system.switch_cpus00.commit.committed_per_cycle::6        13716      0.55%     98.69% # Number of insts commited each cycle
system.switch_cpus00.commit.committed_per_cycle::7        10768      0.43%     99.13% # Number of insts commited each cycle
system.switch_cpus00.commit.committed_per_cycle::8        21659      0.87%    100.00% # Number of insts commited each cycle
system.switch_cpus00.commit.committed_per_cycle::overflows            0      0.00%    100.00% # Number of insts commited each cycle
system.switch_cpus00.commit.committed_per_cycle::min_value            0                       # Number of insts commited each cycle
system.switch_cpus00.commit.committed_per_cycle::max_value            8                       # Number of insts commited each cycle
system.switch_cpus00.commit.committed_per_cycle::total      2482402                       # Number of insts commited each cycle
system.switch_cpus00.commit.committedInsts      1000002                       # Number of instructions committed
system.switch_cpus00.commit.committedOps      1226889                       # Number of ops (including micro ops) committed
system.switch_cpus00.commit.swp_count               0                       # Number of s/w prefetches committed
system.switch_cpus00.commit.refs               185944                       # Number of memory references committed
system.switch_cpus00.commit.loads              112879                       # Number of loads committed
system.switch_cpus00.commit.membars               168                       # Number of memory barriers committed
system.switch_cpus00.commit.branches           175550                       # Number of branches committed
system.switch_cpus00.commit.fp_insts                0                       # Number of committed floating point instructions.
system.switch_cpus00.commit.int_insts         1106121                       # Number of committed integer instructions.
system.switch_cpus00.commit.function_calls        24959                       # Number of function calls committed.
system.switch_cpus00.commit.bw_lim_events        21659                       # number cycles where commit BW limit reached
system.switch_cpus00.commit.bw_limited              0                       # number of insts not committed due to BW limits
system.switch_cpus00.rob.rob_reads            3918213                       # The number of ROB reads
system.switch_cpus00.rob.rob_writes           2956102                       # The number of ROB writes
system.switch_cpus00.timesIdled                 32777                       # Number of times that the entire CPU went into an idle state and unscheduled itself
system.switch_cpus00.idleCycles                341235                       # Total number of cycles that the CPU has spent unscheduled due to idling
system.switch_cpus00.committedInsts           1000002                       # Number of Instructions Simulated
system.switch_cpus00.committedOps             1226889                       # Number of Ops (including micro ops) Simulated
system.switch_cpus00.committedInsts_total      1000002                       # Number of Instructions Simulated
system.switch_cpus00.cpi                     2.864747                       # CPI: Cycles Per Instruction
system.switch_cpus00.cpi_total               2.864747                       # CPI: Total CPI of All Threads
system.switch_cpus00.ipc                     0.349071                       # IPC: Instructions Per Cycle
system.switch_cpus00.ipc_total               0.349071                       # IPC: Total IPC of All Threads
system.switch_cpus00.int_regfile_reads        6069752                       # number of integer regfile reads
system.switch_cpus00.int_regfile_writes       1866074                       # number of integer regfile writes
system.switch_cpus00.misc_regfile_reads       1364081                       # number of misc regfile reads
system.switch_cpus00.misc_regfile_writes          336                       # number of misc regfile writes
system.switch_cpus01.dtb.inst_hits                  0                       # ITB inst hits
system.switch_cpus01.dtb.inst_misses                0                       # ITB inst misses
system.switch_cpus01.dtb.read_hits                  0                       # DTB read hits
system.switch_cpus01.dtb.read_misses                0                       # DTB read misses
system.switch_cpus01.dtb.write_hits                 0                       # DTB write hits
system.switch_cpus01.dtb.write_misses               0                       # DTB write misses
system.switch_cpus01.dtb.flush_tlb                  0                       # Number of times complete TLB was flushed
system.switch_cpus01.dtb.flush_tlb_mva              0                       # Number of times TLB was flushed by MVA
system.switch_cpus01.dtb.flush_tlb_mva_asid            0                       # Number of times TLB was flushed by MVA & ASID
system.switch_cpus01.dtb.flush_tlb_asid             0                       # Number of times TLB was flushed by ASID
system.switch_cpus01.dtb.flush_entries              0                       # Number of entries that have been flushed from TLB
system.switch_cpus01.dtb.align_faults               0                       # Number of TLB faults due to alignment restrictions
system.switch_cpus01.dtb.prefetch_faults            0                       # Number of TLB faults due to prefetch
system.switch_cpus01.dtb.domain_faults              0                       # Number of TLB faults due to domain restrictions
system.switch_cpus01.dtb.perms_faults               0                       # Number of TLB faults due to permissions restrictions
system.switch_cpus01.dtb.read_accesses              0                       # DTB read accesses
system.switch_cpus01.dtb.write_accesses             0                       # DTB write accesses
system.switch_cpus01.dtb.inst_accesses              0                       # ITB inst accesses
system.switch_cpus01.dtb.hits                       0                       # DTB hits
system.switch_cpus01.dtb.misses                     0                       # DTB misses
system.switch_cpus01.dtb.accesses                   0                       # DTB accesses
system.switch_cpus01.itb.inst_hits                  0                       # ITB inst hits
[...]
system.cpu15.icache.demand_miss_latency::switch_cpus15.inst     12815435                       # number of demand (read+write) miss cycles
system.cpu15.icache.demand_miss_latency::total     12815435                       # number of demand (read+write) miss cycles
system.cpu15.icache.overall_miss_latency::switch_cpus15.inst     12815435                       # number of overall miss cycles
system.cpu15.icache.overall_miss_latency::total     12815435                       # number of overall miss cycles
system.cpu15.icache.ReadReq_accesses::switch_cpus15.inst       134488                       # number of ReadReq accesses(hits+misses)
system.cpu15.icache.ReadReq_accesses::total       134488                       # number of ReadReq accesses(hits+misses)
system.cpu15.icache.demand_accesses::switch_cpus15.inst       134488                       # number of demand (read+write) accesses
system.cpu15.icache.demand_accesses::total       134488                       # number of demand (read+write) accesses
system.cpu15.icache.overall_accesses::switch_cpus15.inst       134488                       # number of overall (read+write) accesses
system.cpu15.icache.overall_accesses::total       134488                       # number of overall (read+write) accesses
system.cpu15.icache.ReadReq_miss_rate::switch_cpus15.inst     0.000104                       # miss rate for ReadReq accesses
system.cpu15.icache.ReadReq_miss_rate::total     0.000104                       # miss rate for ReadReq accesses
system.cpu15.icache.demand_miss_rate::switch_cpus15.inst     0.000104                       # miss rate for demand accesses
system.cpu15.icache.demand_miss_rate::total     0.000104                       # miss rate for demand accesses
system.cpu15.icache.overall_miss_rate::switch_cpus15.inst     0.000104                       # miss rate for overall accesses
system.cpu15.icache.overall_miss_rate::total     0.000104                       # miss rate for overall accesses
system.cpu15.icache.ReadReq_avg_miss_latency::switch_cpus15.inst 915388.214286                       # average ReadReq miss latency
system.cpu15.icache.ReadReq_avg_miss_latency::total 915388.214286                       # average ReadReq miss latency
system.cpu15.icache.demand_avg_miss_latency::switch_cpus15.inst 915388.214286                       # average overall miss latency
system.cpu15.icache.demand_avg_miss_latency::total 915388.214286                       # average overall miss latency
system.cpu15.icache.overall_avg_miss_latency::switch_cpus15.inst 915388.214286                       # average overall miss latency
system.cpu15.icache.overall_avg_miss_latency::total 915388.214286                       # average overall miss latency
system.cpu15.icache.blocked_cycles::no_mshrs            0                       # number of cycles access was blocked
system.cpu15.icache.blocked_cycles::no_targets            0                       # number of cycles access was blocked
system.cpu15.icache.blocked::no_mshrs               0                       # number of cycles access was blocked
system.cpu15.icache.blocked::no_targets             0                       # number of cycles access was blocked
system.cpu15.icache.avg_blocked_cycles::no_mshrs          nan                       # average number of cycles each access was blocked
system.cpu15.icache.avg_blocked_cycles::no_targets          nan                       # average number of cycles each access was blocked
system.cpu15.icache.fast_writes                     0                       # number of fast writes performed
system.cpu15.icache.cache_copies                    0                       # number of cache copies performed
system.cpu15.icache.ReadReq_mshr_hits::switch_cpus15.inst            3                       # number of ReadReq MSHR hits
system.cpu15.icache.ReadReq_mshr_hits::total            3                       # number of ReadReq MSHR hits
system.cpu15.icache.demand_mshr_hits::switch_cpus15.inst            3                       # number of demand (read+write) MSHR hits
system.cpu15.icache.demand_mshr_hits::total            3                       # number of demand (read+write) MSHR hits
system.cpu15.icache.overall_mshr_hits::switch_cpus15.inst            3                       # number of overall MSHR hits
system.cpu15.icache.overall_mshr_hits::total            3                       # number of overall MSHR hits
system.cpu15.icache.ReadReq_mshr_misses::switch_cpus15.inst           11                       # number of ReadReq MSHR misses
system.cpu15.icache.ReadReq_mshr_misses::total           11                       # number of ReadReq MSHR misses
system.cpu15.icache.demand_mshr_misses::switch_cpus15.inst           11                       # number of demand (read+write) MSHR misses
system.cpu15.icache.demand_mshr_misses::total           11                       # number of demand (read+write) MSHR misses
system.cpu15.icache.overall_mshr_misses::switch_cpus15.inst           11                       # number of overall MSHR misses
system.cpu15.icache.overall_mshr_misses::total           11                       # number of overall MSHR misses
system.cpu15.icache.ReadReq_mshr_miss_latency::switch_cpus15.inst     11615965                       # number of ReadReq MSHR miss cycles
system.cpu15.icache.ReadReq_mshr_miss_latency::total     11615965                       # number of ReadReq MSHR miss cycles
system.cpu15.icache.demand_mshr_miss_latency::switch_cpus15.inst     11615965                       # number of demand (read+write) MSHR miss cycles
system.cpu15.icache.demand_mshr_miss_latency::total     11615965                       # number of demand (read+write) MSHR miss cycles
system.cpu15.icache.overall_mshr_miss_latency::switch_cpus15.inst     11615965                       # number of overall MSHR miss cycles
system.cpu15.icache.overall_mshr_miss_latency::total     11615965                       # number of overall MSHR miss cycles
system.cpu15.icache.ReadReq_mshr_miss_rate::switch_cpus15.inst     0.000082                       # mshr miss rate for ReadReq accesses
system.cpu15.icache.ReadReq_mshr_miss_rate::total     0.000082                       # mshr miss rate for ReadReq accesses
system.cpu15.icache.demand_mshr_miss_rate::switch_cpus15.inst     0.000082                       # mshr miss rate for demand accesses
system.cpu15.icache.demand_mshr_miss_rate::total     0.000082                       # mshr miss rate for demand accesses
system.cpu15.icache.overall_mshr_miss_rate::switch_cpus15.inst     0.000082                       # mshr miss rate for overall accesses
system.cpu15.icache.overall_mshr_miss_rate::total     0.000082                       # mshr miss rate for overall accesses
system.cpu15.icache.ReadReq_avg_mshr_miss_latency::switch_cpus15.inst 1055996.818182                       # average ReadReq mshr miss latency
system.cpu15.icache.ReadReq_avg_mshr_miss_latency::total 1055996.818182                       # average ReadReq mshr miss latency
system.cpu15.icache.demand_avg_mshr_miss_latency::switch_cpus15.inst 1055996.818182                       # average overall mshr miss latency
system.cpu15.icache.demand_avg_mshr_miss_latency::total 1055996.818182                       # average overall mshr miss latency
system.cpu15.icache.overall_avg_mshr_miss_latency::switch_cpus15.inst 1055996.818182                       # average overall mshr miss latency
system.cpu15.icache.overall_avg_mshr_miss_latency::total 1055996.818182                       # average overall mshr miss latency
system.cpu15.icache.no_allocate_misses              0                       # Number of misses that were no-allocate
system.cpu15.dcache.replacements                  395                       # number of replacements
system.cpu15.dcache.tagsinuse                     256                       # Cycle average of tags in use
system.cpu15.dcache.total_refs              109344833                       # Total number of references to valid blocks.
system.cpu15.dcache.sampled_refs                  651                       # Sample count of references to valid blocks.
system.cpu15.dcache.avg_refs             167964.413210                       # Average number of references to valid blocks.
system.cpu15.dcache.warmup_cycle                    0                       # Cycle when the warmup percentage was hit.
system.cpu15.dcache.occ_blocks::switch_cpus15.data   133.561135                       # Average occupied blocks per requestor
system.cpu15.dcache.occ_blocks::cpu15.data   122.438865                       # Average occupied blocks per requestor
system.cpu15.dcache.occ_percent::switch_cpus15.data     0.521723                       # Average percentage of cache occupancy
system.cpu15.dcache.occ_percent::cpu15.data     0.478277                       # Average percentage of cache occupancy
system.cpu15.dcache.occ_percent::total              1                       # Average percentage of cache occupancy
system.cpu15.dcache.ReadReq_hits::switch_cpus15.data       105168                       # number of ReadReq hits
system.cpu15.dcache.ReadReq_hits::total        105168                       # number of ReadReq hits
system.cpu15.dcache.WriteReq_hits::switch_cpus15.data        77403                       # number of WriteReq hits
system.cpu15.dcache.WriteReq_hits::total        77403                       # number of WriteReq hits
system.cpu15.dcache.LoadLockedReq_hits::switch_cpus15.data          195                       # number of LoadLockedReq hits
system.cpu15.dcache.LoadLockedReq_hits::total          195                       # number of LoadLockedReq hits
system.cpu15.dcache.StoreCondReq_hits::switch_cpus15.data          188                       # number of StoreCondReq hits
system.cpu15.dcache.StoreCondReq_hits::total          188                       # number of StoreCondReq hits
system.cpu15.dcache.demand_hits::switch_cpus15.data       182571                       # number of demand (read+write) hits
system.cpu15.dcache.demand_hits::total         182571                       # number of demand (read+write) hits
system.cpu15.dcache.overall_hits::switch_cpus15.data       182571                       # number of overall hits
system.cpu15.dcache.overall_hits::total        182571                       # number of overall hits
system.cpu15.dcache.ReadReq_misses::switch_cpus15.data         1020                       # number of ReadReq misses
system.cpu15.dcache.ReadReq_misses::total         1020                       # number of ReadReq misses
system.cpu15.dcache.demand_misses::switch_cpus15.data         1020                       # number of demand (read+write) misses
system.cpu15.dcache.demand_misses::total         1020                       # number of demand (read+write) misses
system.cpu15.dcache.overall_misses::switch_cpus15.data         1020                       # number of overall misses
system.cpu15.dcache.overall_misses::total         1020                       # number of overall misses
system.cpu15.dcache.ReadReq_miss_latency::switch_cpus15.data    244127927                       # number of ReadReq miss cycles
system.cpu15.dcache.ReadReq_miss_latency::total    244127927                       # number of ReadReq miss cycles
system.cpu15.dcache.demand_miss_latency::switch_cpus15.data    244127927                       # number of demand (read+write) miss cycles
system.cpu15.dcache.demand_miss_latency::total    244127927                       # number of demand (read+write) miss cycles
system.cpu15.dcache.overall_miss_latency::switch_cpus15.data    244127927                       # number of overall miss cycles
system.cpu15.dcache.overall_miss_latency::total    244127927                       # number of overall miss cycles
system.cpu15.dcache.ReadReq_accesses::switch_cpus15.data       106188                       # number of ReadReq accesses(hits+misses)
system.cpu15.dcache.ReadReq_accesses::total       106188                       # number of ReadReq accesses(hits+misses)
system.cpu15.dcache.WriteReq_accesses::switch_cpus15.data        77403                       # number of WriteReq accesses(hits+misses)
system.cpu15.dcache.WriteReq_accesses::total        77403                       # number of WriteReq accesses(hits+misses)
system.cpu15.dcache.LoadLockedReq_accesses::switch_cpus15.data          195                       # number of LoadLockedReq accesses(hits+misses)
system.cpu15.dcache.LoadLockedReq_accesses::total          195                       # number of LoadLockedReq accesses(hits+misses)
system.cpu15.dcache.StoreCondReq_accesses::switch_cpus15.data          188                       # number of StoreCondReq accesses(hits+misses)
system.cpu15.dcache.StoreCondReq_accesses::total          188                       # number of StoreCondReq accesses(hits+misses)
system.cpu15.dcache.demand_accesses::switch_cpus15.data       183591                       # number of demand (read+write) accesses
system.cpu15.dcache.demand_accesses::total       183591                       # number of demand (read+write) accesses
system.cpu15.dcache.overall_accesses::switch_cpus15.data       183591                       # number of overall (read+write) accesses
system.cpu15.dcache.overall_accesses::total       183591                       # number of overall (read+write) accesses
system.cpu15.dcache.ReadReq_miss_rate::switch_cpus15.data     0.009606                       # miss rate for ReadReq accesses
system.cpu15.dcache.ReadReq_miss_rate::total     0.009606                       # miss rate for ReadReq accesses
system.cpu15.dcache.demand_miss_rate::switch_cpus15.data     0.005556                       # miss rate for demand accesses
system.cpu15.dcache.demand_miss_rate::total     0.005556                       # miss rate for demand accesses
system.cpu15.dcache.overall_miss_rate::switch_cpus15.data     0.005556                       # miss rate for overall accesses
system.cpu15.dcache.overall_miss_rate::total     0.005556                       # miss rate for overall accesses
system.cpu15.dcache.ReadReq_avg_miss_latency::switch_cpus15.data 239341.104902                       # average ReadReq miss latency
system.cpu15.dcache.ReadReq_avg_miss_latency::total 239341.104902                       # average ReadReq miss latency
system.cpu15.dcache.demand_avg_miss_latency::switch_cpus15.data 239341.104902                       # average overall miss latency
system.cpu15.dcache.demand_avg_miss_latency::total 239341.104902                       # average overall miss latency
system.cpu15.dcache.overall_avg_miss_latency::switch_cpus15.data 239341.104902                       # average overall miss latency
system.cpu15.dcache.overall_avg_miss_latency::total 239341.104902                       # average overall miss latency
system.cpu15.dcache.blocked_cycles::no_mshrs            0                       # number of cycles access was blocked
system.cpu15.dcache.blocked_cycles::no_targets            0                       # number of cycles access was blocked
system.cpu15.dcache.blocked::no_mshrs               0                       # number of cycles access was blocked
system.cpu15.dcache.blocked::no_targets             0                       # number of cycles access was blocked
system.cpu15.dcache.avg_blocked_cycles::no_mshrs          nan                       # average number of cycles each access was blocked
system.cpu15.dcache.avg_blocked_cycles::no_targets          nan                       # average number of cycles each access was blocked
system.cpu15.dcache.fast_writes                     0                       # number of fast writes performed
system.cpu15.dcache.cache_copies                    0                       # number of cache copies performed
system.cpu15.dcache.writebacks::writebacks           93                       # number of writebacks
system.cpu15.dcache.writebacks::total              93                       # number of writebacks
system.cpu15.dcache.ReadReq_mshr_hits::switch_cpus15.data          625                       # number of ReadReq MSHR hits
system.cpu15.dcache.ReadReq_mshr_hits::total          625                       # number of ReadReq MSHR hits
system.cpu15.dcache.demand_mshr_hits::switch_cpus15.data          625                       # number of demand (read+write) MSHR hits
system.cpu15.dcache.demand_mshr_hits::total          625                       # number of demand (read+write) MSHR hits
system.cpu15.dcache.overall_mshr_hits::switch_cpus15.data          625                       # number of overall MSHR hits
system.cpu15.dcache.overall_mshr_hits::total          625                       # number of overall MSHR hits
system.cpu15.dcache.ReadReq_mshr_misses::switch_cpus15.data          395                       # number of ReadReq MSHR misses
system.cpu15.dcache.ReadReq_mshr_misses::total          395                       # number of ReadReq MSHR misses
system.cpu15.dcache.demand_mshr_misses::switch_cpus15.data          395                       # number of demand (read+write) MSHR misses
system.cpu15.dcache.demand_mshr_misses::total          395                       # number of demand (read+write) MSHR misses
system.cpu15.dcache.overall_mshr_misses::switch_cpus15.data          395                       # number of overall MSHR misses
system.cpu15.dcache.overall_mshr_misses::total          395                       # number of overall MSHR misses
system.cpu15.dcache.ReadReq_mshr_miss_latency::switch_cpus15.data    103349558                       # number of ReadReq MSHR miss cycles
system.cpu15.dcache.ReadReq_mshr_miss_latency::total    103349558                       # number of ReadReq MSHR miss cycles
system.cpu15.dcache.demand_mshr_miss_latency::switch_cpus15.data    103349558                       # number of demand (read+write) MSHR miss cycles
system.cpu15.dcache.demand_mshr_miss_latency::total    103349558                       # number of demand (read+write) MSHR miss cycles
system.cpu15.dcache.overall_mshr_miss_latency::switch_cpus15.data    103349558                       # number of overall MSHR miss cycles
system.cpu15.dcache.overall_mshr_miss_latency::total    103349558                       # number of overall MSHR miss cycles
system.cpu15.dcache.ReadReq_mshr_miss_rate::switch_cpus15.data     0.003720                       # mshr miss rate for ReadReq accesses
system.cpu15.dcache.ReadReq_mshr_miss_rate::total     0.003720                       # mshr miss rate for ReadReq accesses
system.cpu15.dcache.demand_mshr_miss_rate::switch_cpus15.data     0.002152                       # mshr miss rate for demand accesses
system.cpu15.dcache.demand_mshr_miss_rate::total     0.002152                       # mshr miss rate for demand accesses
system.cpu15.dcache.overall_mshr_miss_rate::switch_cpus15.data     0.002152                       # mshr miss rate for overall accesses
system.cpu15.dcache.overall_mshr_miss_rate::total     0.002152                       # mshr miss rate for overall accesses
system.cpu15.dcache.ReadReq_avg_mshr_miss_latency::switch_cpus15.data 261644.450633                       # average ReadReq mshr miss latency
system.cpu15.dcache.ReadReq_avg_mshr_miss_latency::total 261644.450633                       # average ReadReq mshr miss latency
system.cpu15.dcache.demand_avg_mshr_miss_latency::switch_cpus15.data 261644.450633                       # average overall mshr miss latency
system.cpu15.dcache.demand_avg_mshr_miss_latency::total 261644.450633                       # average overall mshr miss latency
system.cpu15.dcache.overall_avg_mshr_miss_latency::switch_cpus15.data 261644.450633                       # average overall mshr miss latency
system.cpu15.dcache.overall_avg_mshr_miss_latency::total 261644.450633                       # average overall mshr miss latency
system.cpu15.dcache.no_allocate_misses              0                       # Number of misses that were no-allocate

---------- End Simulation Statistics   ----------
