
---------- Begin Simulation Statistics ----------
sim_seconds                                  0.117682                       # Number of seconds simulated
sim_ticks                                117682341450                       # Number of ticks simulated
final_tick                               644784404358                       # Number of ticks from beginning of simulation (restored from checkpoints and never reset)
sim_freq                                 1000000000000                       # Frequency of simulated ticks
host_inst_rate                                 295846                       # Simulator instruction rate (inst/s)
host_op_rate                                   374668                       # Simulator op (including micro ops) rate (op/s)
host_tick_rate                                1987462                       # Simulator tick rate (ticks/s)
host_mem_usage                               67753944                       # Number of bytes of host memory used
host_seconds                                 59212.37                       # Real time elapsed on the host
sim_insts                                 17517761515                       # Number of instructions simulated
sim_ops                                   22184971532                       # Number of ops (including micro ops) simulated
system.physmem.bytes_read::switch_cpus00.inst         4608                       # Number of bytes read from this memory
system.physmem.bytes_read::switch_cpus00.data      2509824                       # Number of bytes read from this memory
system.physmem.bytes_read::switch_cpus01.inst         4352                       # Number of bytes read from this memory
system.physmem.bytes_read::switch_cpus01.data      1158912                       # Number of bytes read from this memory
system.physmem.bytes_read::switch_cpus02.inst         4352                       # Number of bytes read from this memory
system.physmem.bytes_read::switch_cpus02.data      2446976                       # Number of bytes read from this memory
system.physmem.bytes_read::switch_cpus03.inst         5376                       # Number of bytes read from this memory
system.physmem.bytes_read::switch_cpus03.data      1623680                       # Number of bytes read from this memory
system.physmem.bytes_read::switch_cpus04.inst         5504                       # Number of bytes read from this memory
system.physmem.bytes_read::switch_cpus04.data      1625216                       # Number of bytes read from this memory
system.physmem.bytes_read::switch_cpus05.inst         5504                       # Number of bytes read from this memory
system.physmem.bytes_read::switch_cpus05.data      1625088                       # Number of bytes read from this memory
system.physmem.bytes_read::switch_cpus06.inst         4992                       # Number of bytes read from this memory
system.physmem.bytes_read::switch_cpus06.data      3950720                       # Number of bytes read from this memory
system.physmem.bytes_read::switch_cpus07.inst         5504                       # Number of bytes read from this memory
system.physmem.bytes_read::switch_cpus07.data      4673024                       # Number of bytes read from this memory
system.physmem.bytes_read::switch_cpus08.inst         5632                       # Number of bytes read from this memory
system.physmem.bytes_read::switch_cpus08.data      4676224                       # Number of bytes read from this memory
system.physmem.bytes_read::switch_cpus09.inst         5248                       # Number of bytes read from this memory
system.physmem.bytes_read::switch_cpus09.data      4659584                       # Number of bytes read from this memory
system.physmem.bytes_read::switch_cpus10.inst         4352                       # Number of bytes read from this memory
system.physmem.bytes_read::switch_cpus10.data      2447104                       # Number of bytes read from this memory
system.physmem.bytes_read::switch_cpus11.inst         4992                       # Number of bytes read from this memory
system.physmem.bytes_read::switch_cpus11.data      4660096                       # Number of bytes read from this memory
system.physmem.bytes_read::switch_cpus12.inst         5504                       # Number of bytes read from this memory
system.physmem.bytes_read::switch_cpus12.data      1619840                       # Number of bytes read from this memory
system.physmem.bytes_read::switch_cpus13.inst         5376                       # Number of bytes read from this memory
system.physmem.bytes_read::switch_cpus13.data      3960832                       # Number of bytes read from this memory
system.physmem.bytes_read::switch_cpus14.inst         4224                       # Number of bytes read from this memory
system.physmem.bytes_read::switch_cpus14.data      2440832                       # Number of bytes read from this memory
system.physmem.bytes_read::switch_cpus15.inst         4352                       # Number of bytes read from this memory
system.physmem.bytes_read::switch_cpus15.data      1160192                       # Number of bytes read from this memory
system.physmem.bytes_read::total             45318016                       # Number of bytes read from this memory
system.physmem.bytes_inst_read::switch_cpus00.inst         4608                       # Number of instructions bytes read from this memory
system.physmem.bytes_inst_read::switch_cpus01.inst         4352                       # Number of instructions bytes read from this memory
system.physmem.bytes_inst_read::switch_cpus02.inst         4352                       # Number of instructions bytes read from this memory
system.physmem.bytes_inst_read::switch_cpus03.inst         5376                       # Number of instructions bytes read from this memory
system.physmem.bytes_inst_read::switch_cpus04.inst         5504                       # Number of instructions bytes read from this memory
system.physmem.bytes_inst_read::switch_cpus05.inst         5504                       # Number of instructions bytes read from this memory
system.physmem.bytes_inst_read::switch_cpus06.inst         4992                       # Number of instructions bytes read from this memory
system.physmem.bytes_inst_read::switch_cpus07.inst         5504                       # Number of instructions bytes read from this memory
system.physmem.bytes_inst_read::switch_cpus08.inst         5632                       # Number of instructions bytes read from this memory
system.physmem.bytes_inst_read::switch_cpus09.inst         5248                       # Number of instructions bytes read from this memory
system.physmem.bytes_inst_read::switch_cpus10.inst         4352                       # Number of instructions bytes read from this memory
system.physmem.bytes_inst_read::switch_cpus11.inst         4992                       # Number of instructions bytes read from this memory
system.physmem.bytes_inst_read::switch_cpus12.inst         5504                       # Number of instructions bytes read from this memory
system.physmem.bytes_inst_read::switch_cpus13.inst         5376                       # Number of instructions bytes read from this memory
system.physmem.bytes_inst_read::switch_cpus14.inst         4224                       # Number of instructions bytes read from this memory
system.physmem.bytes_inst_read::switch_cpus15.inst         4352                       # Number of instructions bytes read from this memory
system.physmem.bytes_inst_read::total           79872                       # Number of instructions bytes read from this memory
system.physmem.bytes_written::writebacks     10532992                       # Number of bytes written to this memory
system.physmem.bytes_written::total          10532992                       # Number of bytes written to this memory
system.physmem.num_reads::switch_cpus00.inst           36                       # Number of read requests responded to by this memory
system.physmem.num_reads::switch_cpus00.data        19608                       # Number of read requests responded to by this memory
system.physmem.num_reads::switch_cpus01.inst           34                       # Number of read requests responded to by this memory
system.physmem.num_reads::switch_cpus01.data         9054                       # Number of read requests responded to by this memory
system.physmem.num_reads::switch_cpus02.inst           34                       # Number of read requests responded to by this memory
system.physmem.num_reads::switch_cpus02.data        19117                       # Number of read requests responded to by this memory
system.physmem.num_reads::switch_cpus03.inst           42                       # Number of read requests responded to by this memory
system.physmem.num_reads::switch_cpus03.data        12685                       # Number of read requests responded to by this memory
system.physmem.num_reads::switch_cpus04.inst           43                       # Number of read requests responded to by this memory
system.physmem.num_reads::switch_cpus04.data        12697                       # Number of read requests responded to by this memory
system.physmem.num_reads::switch_cpus05.inst           43                       # Number of read requests responded to by this memory
system.physmem.num_reads::switch_cpus05.data        12696                       # Number of read requests responded to by this memory
system.physmem.num_reads::switch_cpus06.inst           39                       # Number of read requests responded to by this memory
system.physmem.num_reads::switch_cpus06.data        30865                       # Number of read requests responded to by this memory
system.physmem.num_reads::switch_cpus07.inst           43                       # Number of read requests responded to by this memory
system.physmem.num_reads::switch_cpus07.data        36508                       # Number of read requests responded to by this memory
system.physmem.num_reads::switch_cpus08.inst           44                       # Number of read requests responded to by this memory
system.physmem.num_reads::switch_cpus08.data        36533                       # Number of read requests responded to by this memory
system.physmem.num_reads::switch_cpus09.inst           41                       # Number of read requests responded to by this memory
system.physmem.num_reads::switch_cpus09.data        36403                       # Number of read requests responded to by this memory
system.physmem.num_reads::switch_cpus10.inst           34                       # Number of read requests responded to by this memory
system.physmem.num_reads::switch_cpus10.data        19118                       # Number of read requests responded to by this memory
system.physmem.num_reads::switch_cpus11.inst           39                       # Number of read requests responded to by this memory
system.physmem.num_reads::switch_cpus11.data        36407                       # Number of read requests responded to by this memory
system.physmem.num_reads::switch_cpus12.inst           43                       # Number of read requests responded to by this memory
system.physmem.num_reads::switch_cpus12.data        12655                       # Number of read requests responded to by this memory
system.physmem.num_reads::switch_cpus13.inst           42                       # Number of read requests responded to by this memory
system.physmem.num_reads::switch_cpus13.data        30944                       # Number of read requests responded to by this memory
system.physmem.num_reads::switch_cpus14.inst           33                       # Number of read requests responded to by this memory
system.physmem.num_reads::switch_cpus14.data        19069                       # Number of read requests responded to by this memory
system.physmem.num_reads::switch_cpus15.inst           34                       # Number of read requests responded to by this memory
system.physmem.num_reads::switch_cpus15.data         9064                       # Number of read requests responded to by this memory
system.physmem.num_reads::total                354047                       # Number of read requests responded to by this memory
system.physmem.num_writes::writebacks           82289                       # Number of write requests responded to by this memory
system.physmem.num_writes::functional               0                       # Number of write requests responded to by this memory
system.physmem.num_writes::interrupt                0                       # Number of write requests responded to by this memory
system.physmem.num_writes::switch_cpus00.dtb.walker            0                       # Number of write requests responded to by this memory
system.physmem.num_writes::switch_cpus00.itb.walker            0                       # Number of write requests responded to by this memory
system.physmem.num_writes::switch_cpus00.inst            0                       # Number of write requests responded to by this memory
system.physmem.num_writes::switch_cpus00.data            0                       # Number of write requests responded to by this memory
system.physmem.num_writes::switch_cpus01.dtb.walker            0                       # Number of write requests responded to by this memory
system.physmem.num_writes::switch_cpus01.itb.walker            0                       # Number of write requests responded to by this memory
system.physmem.num_writes::switch_cpus01.inst            0                       # Number of write requests responded to by this memory
system.physmem.num_writes::switch_cpus01.data            0                       # Number of write requests responded to by this memory
system.physmem.num_writes::switch_cpus02.dtb.walker            0                       # Number of write requests responded to by this memory
system.physmem.num_writes::switch_cpus02.itb.walker            0                       # Number of write requests responded to by this memory
system.physmem.num_writes::switch_cpus02.inst            0                       # Number of write requests responded to by this memory
system.physmem.num_writes::switch_cpus02.data            0                       # Number of write requests responded to by this memory
system.physmem.num_writes::switch_cpus03.dtb.walker            0                       # Number of write requests responded to by this memory
system.physmem.num_writes::switch_cpus03.itb.walker            0                       # Number of write requests responded to by this memory
system.physmem.num_writes::switch_cpus03.inst            0                       # Number of write requests responded to by this memory
system.physmem.num_writes::switch_cpus03.data            0                       # Number of write requests responded to by this memory
system.physmem.num_writes::switch_cpus04.dtb.walker            0                       # Number of write requests responded to by this memory
system.physmem.num_writes::switch_cpus04.itb.walker            0                       # Number of write requests responded to by this memory
system.physmem.num_writes::switch_cpus04.inst            0                       # Number of write requests responded to by this memory
system.physmem.num_writes::switch_cpus04.data            0                       # Number of write requests responded to by this memory
system.physmem.num_writes::switch_cpus05.dtb.walker            0                       # Number of write requests responded to by this memory
system.physmem.num_writes::switch_cpus05.itb.walker            0                       # Number of write requests responded to by this memory
system.physmem.num_writes::switch_cpus05.inst            0                       # Number of write requests responded to by this memory
system.physmem.num_writes::switch_cpus05.data            0                       # Number of write requests responded to by this memory
system.physmem.num_writes::switch_cpus06.dtb.walker            0                       # Number of write requests responded to by this memory
system.physmem.num_writes::switch_cpus06.itb.walker            0                       # Number of write requests responded to by this memory
system.physmem.num_writes::switch_cpus06.inst            0                       # Number of write requests responded to by this memory
system.physmem.num_writes::switch_cpus06.data            0                       # Number of write requests responded to by this memory
system.physmem.num_writes::switch_cpus07.dtb.walker            0                       # Number of write requests responded to by this memory
system.physmem.num_writes::switch_cpus07.itb.walker            0                       # Number of write requests responded to by this memory
system.physmem.num_writes::switch_cpus07.inst            0                       # Number of write requests responded to by this memory
system.physmem.num_writes::switch_cpus07.data            0                       # Number of write requests responded to by this memory
system.physmem.num_writes::switch_cpus08.dtb.walker            0                       # Number of write requests responded to by this memory
system.physmem.num_writes::switch_cpus08.itb.walker            0                       # Number of write requests responded to by this memory
system.physmem.num_writes::switch_cpus08.inst            0                       # Number of write requests responded to by this memory
system.physmem.num_writes::switch_cpus08.data            0                       # Number of write requests responded to by this memory
system.physmem.num_writes::switch_cpus09.dtb.walker            0                       # Number of write requests responded to by this memory
system.physmem.num_writes::switch_cpus09.itb.walker            0                       # Number of write requests responded to by this memory
system.physmem.num_writes::switch_cpus09.inst            0                       # Number of write requests responded to by this memory
system.physmem.num_writes::switch_cpus09.data            0                       # Number of write requests responded to by this memory
system.physmem.num_writes::switch_cpus10.dtb.walker            0                       # Number of write requests responded to by this memory
system.physmem.num_writes::switch_cpus10.itb.walker            0                       # Number of write requests responded to by this memory
system.physmem.num_writes::switch_cpus10.inst            0                       # Number of write requests responded to by this memory
system.physmem.num_writes::switch_cpus10.data            0                       # Number of write requests responded to by this memory
system.physmem.num_writes::switch_cpus11.dtb.walker            0                       # Number of write requests responded to by this memory
system.physmem.num_writes::switch_cpus11.itb.walker            0                       # Number of write requests responded to by this memory
system.physmem.num_writes::switch_cpus11.inst            0                       # Number of write requests responded to by this memory
system.physmem.num_writes::switch_cpus11.data            0                       # Number of write requests responded to by this memory
system.physmem.num_writes::switch_cpus12.dtb.walker            0                       # Number of write requests responded to by this memory
system.physmem.num_writes::switch_cpus12.itb.walker            0                       # Number of write requests responded to by this memory
system.physmem.num_writes::switch_cpus12.inst            0                       # Number of write requests responded to by this memory
system.physmem.num_writes::switch_cpus12.data            0                       # Number of write requests responded to by this memory
system.physmem.num_writes::switch_cpus13.dtb.walker            0                       # Number of write requests responded to by this memory
system.physmem.num_writes::switch_cpus13.itb.walker            0                       # Number of write requests responded to by this memory
system.physmem.num_writes::switch_cpus13.inst            0                       # Number of write requests responded to by this memory
system.physmem.num_writes::switch_cpus13.data            0                       # Number of write requests responded to by this memory
system.physmem.num_writes::switch_cpus14.dtb.walker            0                       # Number of write requests responded to by this memory
system.physmem.num_writes::switch_cpus14.itb.walker            0                       # Number of write requests responded to by this memory
system.physmem.num_writes::switch_cpus14.inst            0                       # Number of write requests responded to by this memory
system.physmem.num_writes::switch_cpus14.data            0                       # Number of write requests responded to by this memory
system.physmem.num_writes::switch_cpus15.dtb.walker            0                       # Number of write requests responded to by this memory
system.physmem.num_writes::switch_cpus15.itb.walker            0                       # Number of write requests responded to by this memory
system.physmem.num_writes::switch_cpus15.inst            0                       # Number of write requests responded to by this memory
system.physmem.num_writes::switch_cpus15.data            0                       # Number of write requests responded to by this memory
system.physmem.num_writes::cpu00.dtb.walker            0                       # Number of write requests responded to by this memory
system.physmem.num_writes::cpu00.itb.walker            0                       # Number of write requests responded to by this memory
system.physmem.num_writes::cpu00.inst               0                       # Number of write requests responded to by this memory
system.physmem.num_writes::cpu00.data               0                       # Number of write requests responded to by this memory
system.physmem.num_writes::cpu01.dtb.walker            0                       # Number of write requests responded to by this memory
system.physmem.num_writes::cpu01.itb.walker            0                       # Number of write requests responded to by this memory
system.physmem.num_writes::cpu01.inst               0                       # Number of write requests responded to by this memory
system.physmem.num_writes::cpu01.data               0                       # Number of write requests responded to by this memory
system.physmem.num_writes::cpu02.dtb.walker            0                       # Number of write requests responded to by this memory
system.physmem.num_writes::cpu02.itb.walker            0                       # Number of write requests responded to by this memory
system.physmem.num_writes::cpu02.inst               0                       # Number of write requests responded to by this memory
system.physmem.num_writes::cpu02.data               0                       # Number of write requests responded to by this memory
system.physmem.num_writes::cpu03.dtb.walker            0                       # Number of write requests responded to by this memory
system.physmem.num_writes::cpu03.itb.walker            0                       # Number of write requests responded to by this memory
system.physmem.num_writes::cpu03.inst               0                       # Number of write requests responded to by this memory
system.physmem.num_writes::cpu03.data               0                       # Number of write requests responded to by this memory
system.physmem.num_writes::cpu04.dtb.walker            0                       # Number of write requests responded to by this memory
system.physmem.num_writes::cpu04.itb.walker            0                       # Number of write requests responded to by this memory
system.physmem.num_writes::cpu04.inst               0                       # Number of write requests responded to by this memory
system.physmem.num_writes::cpu04.data               0                       # Number of write requests responded to by this memory
system.physmem.num_writes::cpu05.dtb.walker            0                       # Number of write requests responded to by this memory
system.physmem.num_writes::cpu05.itb.walker            0                       # Number of write requests responded to by this memory
system.physmem.num_writes::cpu05.inst               0                       # Number of write requests responded to by this memory
system.physmem.num_writes::cpu05.data               0                       # Number of write requests responded to by this memory
system.physmem.num_writes::cpu06.dtb.walker            0                       # Number of write requests responded to by this memory
system.physmem.num_writes::cpu06.itb.walker            0                       # Number of write requests responded to by this memory
system.physmem.num_writes::cpu06.inst               0                       # Number of write requests responded to by this memory
system.physmem.num_writes::cpu06.data               0                       # Number of write requests responded to by this memory
system.physmem.num_writes::cpu07.dtb.walker            0                       # Number of write requests responded to by this memory
system.physmem.num_writes::cpu07.itb.walker            0                       # Number of write requests responded to by this memory
system.physmem.num_writes::cpu07.inst               0                       # Number of write requests responded to by this memory
system.physmem.num_writes::cpu07.data               0                       # Number of write requests responded to by this memory
system.physmem.num_writes::cpu08.dtb.walker            0                       # Number of write requests responded to by this memory
system.physmem.num_writes::cpu08.itb.walker            0                       # Number of write requests responded to by this memory
system.physmem.num_writes::cpu08.inst               0                       # Number of write requests responded to by this memory
system.physmem.num_writes::cpu08.data               0                       # Number of write requests responded to by this memory
system.physmem.num_writes::cpu09.dtb.walker            0                       # Number of write requests responded to by this memory
system.physmem.num_writes::cpu09.itb.walker            0                       # Number of write requests responded to by this memory
system.physmem.num_writes::cpu09.inst               0                       # Number of write requests responded to by this memory
system.physmem.num_writes::cpu09.data               0                       # Number of write requests responded to by this memory
system.physmem.num_writes::cpu10.dtb.walker            0                       # Number of write requests responded to by this memory
system.physmem.num_writes::cpu10.itb.walker            0                       # Number of write requests responded to by this memory
system.physmem.num_writes::cpu10.inst               0                       # Number of write requests responded to by this memory
system.physmem.num_writes::cpu10.data               0                       # Number of write requests responded to by this memory
system.physmem.num_writes::cpu11.dtb.walker            0                       # Number of write requests responded to by this memory
system.physmem.num_writes::cpu11.itb.walker            0                       # Number of write requests responded to by this memory
system.physmem.num_writes::cpu11.inst               0                       # Number of write requests responded to by this memory
system.physmem.num_writes::cpu11.data               0                       # Number of write requests responded to by this memory
system.physmem.num_writes::cpu12.dtb.walker            0                       # Number of write requests responded to by this memory
system.physmem.num_writes::cpu12.itb.walker            0                       # Number of write requests responded to by this memory
system.physmem.num_writes::cpu12.inst               0                       # Number of write requests responded to by this memory
system.physmem.num_writes::cpu12.data               0                       # Number of write requests responded to by this memory
system.physmem.num_writes::cpu13.dtb.walker            0                       # Number of write requests responded to by this memory
system.physmem.num_writes::cpu13.itb.walker            0                       # Number of write requests responded to by this memory
system.physmem.num_writes::cpu13.inst               0                       # Number of write requests responded to by this memory
system.physmem.num_writes::cpu13.data               0                       # Number of write requests responded to by this memory
system.physmem.num_writes::cpu14.dtb.walker            0                       # Number of write requests responded to by this memory
system.physmem.num_writes::cpu14.itb.walker            0                       # Number of write requests responded to by this memory
system.physmem.num_writes::cpu14.inst               0                       # Number of write requests responded to by this memory
system.physmem.num_writes::cpu14.data               0                       # Number of write requests responded to by this memory
system.physmem.num_writes::cpu15.dtb.walker            0                       # Number of write requests responded to by this memory
system.physmem.num_writes::cpu15.itb.walker            0                       # Number of write requests responded to by this memory
system.physmem.num_writes::cpu15.inst               0                       # Number of write requests responded to by this memory
system.physmem.num_writes::cpu15.data               0                       # Number of write requests responded to by this memory
system.physmem.num_writes::total                82289                       # Number of write requests responded to by this memory
system.physmem.bw_read::switch_cpus00.inst        39156                       # Total read bandwidth from this memory (bytes/s)
system.physmem.bw_read::switch_cpus00.data     21327108                       # Total read bandwidth from this memory (bytes/s)
system.physmem.bw_read::switch_cpus01.inst        36981                       # Total read bandwidth from this memory (bytes/s)
system.physmem.bw_read::switch_cpus01.data      9847799                       # Total read bandwidth from this memory (bytes/s)
system.physmem.bw_read::switch_cpus02.inst        36981                       # Total read bandwidth from this memory (bytes/s)
system.physmem.bw_read::switch_cpus02.data     20793060                       # Total read bandwidth from this memory (bytes/s)
system.physmem.bw_read::switch_cpus03.inst        45682                       # Total read bandwidth from this memory (bytes/s)
system.physmem.bw_read::switch_cpus03.data     13797142                       # Total read bandwidth from this memory (bytes/s)
system.physmem.bw_read::switch_cpus04.inst        46770                       # Total read bandwidth from this memory (bytes/s)
system.physmem.bw_read::switch_cpus04.data     13810194                       # Total read bandwidth from this memory (bytes/s)
system.physmem.bw_read::switch_cpus05.inst        46770                       # Total read bandwidth from this memory (bytes/s)
system.physmem.bw_read::switch_cpus05.data     13809107                       # Total read bandwidth from this memory (bytes/s)
system.physmem.bw_read::switch_cpus06.inst        42419                       # Total read bandwidth from this memory (bytes/s)
system.physmem.bw_read::switch_cpus06.data     33571052                       # Total read bandwidth from this memory (bytes/s)
system.physmem.bw_read::switch_cpus07.inst        46770                       # Total read bandwidth from this memory (bytes/s)
system.physmem.bw_read::switch_cpus07.data     39708795                       # Total read bandwidth from this memory (bytes/s)
system.physmem.bw_read::switch_cpus08.inst        47858                       # Total read bandwidth from this memory (bytes/s)
system.physmem.bw_read::switch_cpus08.data     39735987                       # Total read bandwidth from this memory (bytes/s)
system.physmem.bw_read::switch_cpus09.inst        44595                       # Total read bandwidth from this memory (bytes/s)
system.physmem.bw_read::switch_cpus09.data     39594589                       # Total read bandwidth from this memory (bytes/s)
system.physmem.bw_read::switch_cpus10.inst        36981                       # Total read bandwidth from this memory (bytes/s)
system.physmem.bw_read::switch_cpus10.data     20794148                       # Total read bandwidth from this memory (bytes/s)
system.physmem.bw_read::switch_cpus11.inst        42419                       # Total read bandwidth from this memory (bytes/s)
system.physmem.bw_read::switch_cpus11.data     39598940                       # Total read bandwidth from this memory (bytes/s)
system.physmem.bw_read::switch_cpus12.inst        46770                       # Total read bandwidth from this memory (bytes/s)
system.physmem.bw_read::switch_cpus12.data     13764512                       # Total read bandwidth from this memory (bytes/s)
system.physmem.bw_read::switch_cpus13.inst        45682                       # Total read bandwidth from this memory (bytes/s)
system.physmem.bw_read::switch_cpus13.data     33656978                       # Total read bandwidth from this memory (bytes/s)
system.physmem.bw_read::switch_cpus14.inst        35893                       # Total read bandwidth from this memory (bytes/s)
system.physmem.bw_read::switch_cpus14.data     20740852                       # Total read bandwidth from this memory (bytes/s)
system.physmem.bw_read::switch_cpus15.inst        36981                       # Total read bandwidth from this memory (bytes/s)
system.physmem.bw_read::switch_cpus15.data      9858675                       # Total read bandwidth from this memory (bytes/s)
system.physmem.bw_read::total               385087647                       # Total read bandwidth from this memory (bytes/s)
system.physmem.bw_inst_read::switch_cpus00.inst        39156                       # Instruction read bandwidth from this memory (bytes/s)
system.physmem.bw_inst_read::switch_cpus01.inst        36981                       # Instruction read bandwidth from this memory (bytes/s)
system.physmem.bw_inst_read::switch_cpus02.inst        36981                       # Instruction read bandwidth from this memory (bytes/s)
system.physmem.bw_inst_read::switch_cpus03.inst        45682                       # Instruction read bandwidth from this memory (bytes/s)
system.physmem.bw_inst_read::switch_cpus04.inst        46770                       # Instruction read bandwidth from this memory (bytes/s)
system.physmem.bw_inst_read::switch_cpus05.inst        46770                       # Instruction read bandwidth from this memory (bytes/s)
system.physmem.bw_inst_read::switch_cpus06.inst        42419                       # Instruction read bandwidth from this memory (bytes/s)
system.physmem.bw_inst_read::switch_cpus07.inst        46770                       # Instruction read bandwidth from this memory (bytes/s)
system.physmem.bw_inst_read::switch_cpus08.inst        47858                       # Instruction read bandwidth from this memory (bytes/s)
system.physmem.bw_inst_read::switch_cpus09.inst        44595                       # Instruction read bandwidth from this memory (bytes/s)
system.physmem.bw_inst_read::switch_cpus10.inst        36981                       # Instruction read bandwidth from this memory (bytes/s)
system.physmem.bw_inst_read::switch_cpus11.inst        42419                       # Instruction read bandwidth from this memory (bytes/s)
system.physmem.bw_inst_read::switch_cpus12.inst        46770                       # Instruction read bandwidth from this memory (bytes/s)
system.physmem.bw_inst_read::switch_cpus13.inst        45682                       # Instruction read bandwidth from this memory (bytes/s)
system.physmem.bw_inst_read::switch_cpus14.inst        35893                       # Instruction read bandwidth from this memory (bytes/s)
system.physmem.bw_inst_read::switch_cpus15.inst        36981                       # Instruction read bandwidth from this memory (bytes/s)
system.physmem.bw_inst_read::total             678708                       # Instruction read bandwidth from this memory (bytes/s)
system.physmem.bw_write::writebacks          89503590                       # Write bandwidth from this memory (bytes/s)
system.physmem.bw_write::total               89503590                       # Write bandwidth from this memory (bytes/s)
system.physmem.bw_total::writebacks          89503590                       # Total bandwidth to/from this memory (bytes/s)
system.physmem.bw_total::switch_cpus00.inst        39156                       # Total bandwidth to/from this memory (bytes/s)
system.physmem.bw_total::switch_cpus00.data     21327108                       # Total bandwidth to/from this memory (bytes/s)
system.physmem.bw_total::switch_cpus01.inst        36981                       # Total bandwidth to/from this memory (bytes/s)
system.physmem.bw_total::switch_cpus01.data      9847799                       # Total bandwidth to/from this memory (bytes/s)
system.physmem.bw_total::switch_cpus02.inst        36981                       # Total bandwidth to/from this memory (bytes/s)
system.physmem.bw_total::switch_cpus02.data     20793060                       # Total bandwidth to/from this memory (bytes/s)
system.physmem.bw_total::switch_cpus03.inst        45682                       # Total bandwidth to/from this memory (bytes/s)
system.physmem.bw_total::switch_cpus03.data     13797142                       # Total bandwidth to/from this memory (bytes/s)
system.physmem.bw_total::switch_cpus04.inst        46770                       # Total bandwidth to/from this memory (bytes/s)
system.physmem.bw_total::switch_cpus04.data     13810194                       # Total bandwidth to/from this memory (bytes/s)
system.physmem.bw_total::switch_cpus05.inst        46770                       # Total bandwidth to/from this memory (bytes/s)
system.physmem.bw_total::switch_cpus05.data     13809107                       # Total bandwidth to/from this memory (bytes/s)
system.physmem.bw_total::switch_cpus06.inst        42419                       # Total bandwidth to/from this memory (bytes/s)
system.physmem.bw_total::switch_cpus06.data     33571052                       # Total bandwidth to/from this memory (bytes/s)
system.physmem.bw_total::switch_cpus07.inst        46770                       # Total bandwidth to/from this memory (bytes/s)
system.physmem.bw_total::switch_cpus07.data     39708795                       # Total bandwidth to/from this memory (bytes/s)
system.physmem.bw_total::switch_cpus08.inst        47858                       # Total bandwidth to/from this memory (bytes/s)
system.physmem.bw_total::switch_cpus08.data     39735987                       # Total bandwidth to/from this memory (bytes/s)
system.physmem.bw_total::switch_cpus09.inst        44595                       # Total bandwidth to/from this memory (bytes/s)
system.physmem.bw_total::switch_cpus09.data     39594589                       # Total bandwidth to/from this memory (bytes/s)
system.physmem.bw_total::switch_cpus10.inst        36981                       # Total bandwidth to/from this memory (bytes/s)
system.physmem.bw_total::switch_cpus10.data     20794148                       # Total bandwidth to/from this memory (bytes/s)
system.physmem.bw_total::switch_cpus11.inst        42419                       # Total bandwidth to/from this memory (bytes/s)
system.physmem.bw_total::switch_cpus11.data     39598940                       # Total bandwidth to/from this memory (bytes/s)
system.physmem.bw_total::switch_cpus12.inst        46770                       # Total bandwidth to/from this memory (bytes/s)
system.physmem.bw_total::switch_cpus12.data     13764512                       # Total bandwidth to/from this memory (bytes/s)
system.physmem.bw_total::switch_cpus13.inst        45682                       # Total bandwidth to/from this memory (bytes/s)
system.physmem.bw_total::switch_cpus13.data     33656978                       # Total bandwidth to/from this memory (bytes/s)
system.physmem.bw_total::switch_cpus14.inst        35893                       # Total bandwidth to/from this memory (bytes/s)
system.physmem.bw_total::switch_cpus14.data     20740852                       # Total bandwidth to/from this memory (bytes/s)
system.physmem.bw_total::switch_cpus15.inst        36981                       # Total bandwidth to/from this memory (bytes/s)
system.physmem.bw_total::switch_cpus15.data      9858675                       # Total bandwidth to/from this memory (bytes/s)
system.physmem.bw_total::total              474591237                       # Total bandwidth to/from this memory (bytes/s)
system.switch_cpus00.dtb.inst_hits                  0                       # ITB inst hits
system.switch_cpus00.dtb.inst_misses                0                       # ITB inst misses
system.switch_cpus00.dtb.read_hits                  0                       # DTB read hits
system.switch_cpus00.dtb.read_misses                0                       # DTB read misses
system.switch_cpus00.dtb.write_hits                 0                       # DTB write hits
system.switch_cpus00.dtb.write_misses               0                       # DTB write misses
system.switch_cpus00.dtb.flush_tlb                  0                       # Number of times complete TLB was flushed
system.switch_cpus00.dtb.flush_tlb_mva              0                       # Number of times TLB was flushed by MVA
system.switch_cpus00.dtb.flush_tlb_mva_asid            0                       # Number of times TLB was flushed by MVA & ASID
system.switch_cpus00.dtb.flush_tlb_asid             0                       # Number of times TLB was flushed by ASID
system.switch_cpus00.dtb.flush_entries              0                       # Number of entries that have been flushed from TLB
system.switch_cpus00.dtb.align_faults               0                       # Number of TLB faults due to alignment restrictions
system.switch_cpus00.dtb.prefetch_faults            0                       # Number of TLB faults due to prefetch
system.switch_cpus00.dtb.domain_faults              0                       # Number of TLB faults due to domain restrictions
system.switch_cpus00.dtb.perms_faults               0                       # Number of TLB faults due to permissions restrictions
system.switch_cpus00.dtb.read_accesses              0                       # DTB read accesses
system.switch_cpus00.dtb.write_accesses             0                       # DTB write accesses
system.switch_cpus00.dtb.inst_accesses              0                       # ITB inst accesses
system.switch_cpus00.dtb.hits                       0                       # DTB hits
system.switch_cpus00.dtb.misses                     0                       # DTB misses
system.switch_cpus00.dtb.accesses                   0                       # DTB accesses
system.switch_cpus00.itb.inst_hits                  0                       # ITB inst hits
system.switch_cpus00.itb.inst_misses                0                       # ITB inst misses
system.switch_cpus00.itb.read_hits                  0                       # DTB read hits
system.switch_cpus00.itb.read_misses                0                       # DTB read misses
system.switch_cpus00.itb.write_hits                 0                       # DTB write hits
system.switch_cpus00.itb.write_misses               0                       # DTB write misses
system.switch_cpus00.itb.flush_tlb                  0                       # Number of times complete TLB was flushed
system.switch_cpus00.itb.flush_tlb_mva              0                       # Number of times TLB was flushed by MVA
system.switch_cpus00.itb.flush_tlb_mva_asid            0                       # Number of times TLB was flushed by MVA & ASID
system.switch_cpus00.itb.flush_tlb_asid             0                       # Number of times TLB was flushed by ASID
system.switch_cpus00.itb.flush_entries              0                       # Number of entries that have been flushed from TLB
system.switch_cpus00.itb.align_faults               0                       # Number of TLB faults due to alignment restrictions
system.switch_cpus00.itb.prefetch_faults            0                       # Number of TLB faults due to prefetch
system.switch_cpus00.itb.domain_faults              0                       # Number of TLB faults due to domain restrictions
system.switch_cpus00.itb.perms_faults               0                       # Number of TLB faults due to permissions restrictions
system.switch_cpus00.itb.read_accesses              0                       # DTB read accesses
system.switch_cpus00.itb.write_accesses             0                       # DTB write accesses
system.switch_cpus00.itb.inst_accesses              0                       # ITB inst accesses
system.switch_cpus00.itb.hits                       0                       # DTB hits
system.switch_cpus00.itb.misses                     0                       # DTB misses
system.switch_cpus00.itb.accesses                   0                       # DTB accesses
system.cpu00.workload.num_syscalls                 52                       # Number of system calls
system.switch_cpus00.numCycles              282211851                       # number of cpu cycles simulated
system.switch_cpus00.numWorkItemsStarted            0                       # number of work items this cpu started
system.switch_cpus00.numWorkItemsCompleted            0                       # number of work items this cpu completed
system.switch_cpus00.BPredUnit.lookups       20714352                       # Number of BP lookups
system.switch_cpus00.BPredUnit.condPredicted     16987704                       # Number of conditional branches predicted
system.switch_cpus00.BPredUnit.condIncorrect      2025312                       # Number of conditional branches incorrect
system.switch_cpus00.BPredUnit.BTBLookups      8540682                       # Number of BTB lookups
system.switch_cpus00.BPredUnit.BTBHits        8089063                       # Number of BTB hits
system.switch_cpus00.BPredUnit.BTBCorrect            0                       # Number of correct BTB predictions (this stat may not work properly.
system.switch_cpus00.BPredUnit.usedRAS        2121988                       # Number of times the RAS was used to get a target.
system.switch_cpus00.BPredUnit.RASInCorrect        90970                       # Number of incorrect RAS predictions.
system.switch_cpus00.fetch.icacheStallCycles    197540457                       # Number of cycles fetch is stalled on an Icache miss
system.switch_cpus00.fetch.Insts            117760831                       # Number of instructions fetch has processed
system.switch_cpus00.fetch.Branches          20714352                       # Number of branches that fetch encountered
system.switch_cpus00.fetch.predictedBranches     10211051                       # Number of branches that fetch has predicted taken
system.switch_cpus00.fetch.Cycles            25897817                       # Number of cycles fetch has run and was not squashing or blocked
system.switch_cpus00.fetch.SquashCycles       5768883                       # Number of cycles fetch has spent squashing
system.switch_cpus00.fetch.BlockedCycles     18642897                       # Number of cycles fetch has spent blocked
system.switch_cpus00.fetch.CacheLines        12173546                       # Number of cache lines fetched
system.switch_cpus00.fetch.IcacheSquashes      2014092                       # Number of outstanding Icache misses that were squashed
system.switch_cpus00.fetch.rateDist::samples    245789164                       # Number of instructions fetched each cycle (Total)
system.switch_cpus00.fetch.rateDist::mean     0.585851                       # Number of instructions fetched each cycle (Total)
system.switch_cpus00.fetch.rateDist::stdev     1.923154                       # Number of instructions fetched each cycle (Total)
system.switch_cpus00.fetch.rateDist::underflows            0      0.00%      0.00% # Number of instructions fetched each cycle (Total)
system.switch_cpus00.fetch.rateDist::0      219891347     89.46%     89.46% # Number of instructions fetched each cycle (Total)
system.switch_cpus00.fetch.rateDist::1        2803647      1.14%     90.60% # Number of instructions fetched each cycle (Total)
system.switch_cpus00.fetch.rateDist::2        3240772      1.32%     91.92% # Number of instructions fetched each cycle (Total)
system.switch_cpus00.fetch.rateDist::3        1782700      0.73%     92.65% # Number of instructions fetched each cycle (Total)
system.switch_cpus00.fetch.rateDist::4        2069010      0.84%     93.49% # Number of instructions fetched each cycle (Total)
system.switch_cpus00.fetch.rateDist::5        1126516      0.46%     93.95% # Number of instructions fetched each cycle (Total)
system.switch_cpus00.fetch.rateDist::6         768748      0.31%     94.26% # Number of instructions fetched each cycle (Total)
system.switch_cpus00.fetch.rateDist::7        2009846      0.82%     95.08% # Number of instructions fetched each cycle (Total)
system.switch_cpus00.fetch.rateDist::8       12096578      4.92%    100.00% # Number of instructions fetched each cycle (Total)
system.switch_cpus00.fetch.rateDist::overflows            0      0.00%    100.00% # Number of instructions fetched each cycle (Total)
system.switch_cpus00.fetch.rateDist::min_value            0                       # Number of instructions fetched each cycle (Total)
system.switch_cpus00.fetch.rateDist::max_value            8                       # Number of instructions fetched each cycle (Total)
system.switch_cpus00.fetch.rateDist::total    245789164                       # Number of instructions fetched each cycle (Total)
system.switch_cpus00.fetch.branchRate        0.073400                       # Number of branch fetches per cycle
system.switch_cpus00.fetch.rate              0.417278                       # Number of inst fetches per cycle
system.switch_cpus00.decode.IdleCycles      195945037                       # Number of cycles decode is idle
system.switch_cpus00.decode.BlockedCycles     20269069                       # Number of cycles decode is blocked
system.switch_cpus00.decode.RunCycles        25691396                       # Number of cycles decode is running
system.switch_cpus00.decode.UnblockCycles       194557                       # Number of cycles decode is unblocking
system.switch_cpus00.decode.SquashCycles      3689099                       # Number of cycles decode is squashing
system.switch_cpus00.decode.BranchResolved      3362148                       # Number of times decode resolved a branch
system.switch_cpus00.decode.BranchMispred        18894                       # Number of times decode detected a branch misprediction
system.switch_cpus00.decode.DecodedInsts    143764359                       # Number of instructions handled by decode
system.switch_cpus00.decode.SquashedInsts        93517                       # Number of squashed instructions handled by decode
system.switch_cpus00.rename.SquashCycles      3689099                       # Number of cycles rename is squashing
system.switch_cpus00.rename.IdleCycles      196248891                       # Number of cycles rename is idle
system.switch_cpus00.rename.BlockCycles       6633409                       # Number of cycles rename is blocking
system.switch_cpus00.rename.serializeStallCycles     12774757                       # count of cycles rename stalled for serializing inst
system.switch_cpus00.rename.RunCycles        25590559                       # Number of cycles rename is running
system.switch_cpus00.rename.UnblockCycles       852443                       # Number of cycles rename is unblocking
system.switch_cpus00.rename.RenamedInsts    143676778                       # Number of instructions processed by rename
system.switch_cpus00.rename.ROBFullEvents          202                       # Number of times rename has blocked due to ROB full
system.switch_cpus00.rename.IQFullEvents       224470                       # Number of times rename has blocked due to IQ full
system.switch_cpus00.rename.LSQFullEvents       392695                       # Number of times rename has blocked due to LSQ full
system.switch_cpus00.rename.FullRegisterEvents           75                       # Number of times there has been no free registers
system.switch_cpus00.rename.RenamedOperands    199624320                       # Number of destination operands rename has renamed
system.switch_cpus00.rename.RenameLookups    668965773                       # Number of register rename lookups that rename has made
system.switch_cpus00.rename.int_rename_lookups    668965773                       # Number of integer rename lookups
system.switch_cpus00.rename.CommittedMaps    170291692                       # Number of HB maps that are committed
system.switch_cpus00.rename.UndoneMaps       29332588                       # Number of HB maps that are undone due to squashing
system.switch_cpus00.rename.serializingInsts        37489                       # count of serializing insts renamed
system.switch_cpus00.rename.tempSerializingInsts        20864                       # count of temporary serializing insts renamed
system.switch_cpus00.rename.skidInsts         2288131                       # count of insts added to the skid buffer
system.switch_cpus00.memDep0.insertedLoads     13725541                       # Number of loads inserted to the mem dependence unit.
system.switch_cpus00.memDep0.insertedStores      7469340                       # Number of stores inserted to the mem dependence unit.
system.switch_cpus00.memDep0.conflictingLoads       197386                       # Number of conflicting loads.
system.switch_cpus00.memDep0.conflictingStores      1659473                       # Number of conflicting stores.
system.switch_cpus00.iq.iqInstsAdded        143434701                       # Number of instructions added to the IQ (excludes non-spec)
system.switch_cpus00.iq.iqNonSpecInstsAdded        37569                       # Number of non-speculative instructions added to the IQ
system.switch_cpus00.iq.iqInstsIssued       135473586                       # Number of instructions issued
system.switch_cpus00.iq.iqSquashedInstsIssued       192057                       # Number of squashed instructions issued
system.switch_cpus00.iq.iqSquashedInstsExamined     18071396                       # Number of squashed instructions iterated over during squash; mainly for profiling
system.switch_cpus00.iq.iqSquashedOperandsExamined     41853677                       # Number of squashed operands that are examined and possibly removed from graph
system.switch_cpus00.iq.iqSquashedNonSpecRemoved         4119                       # Number of squashed non-spec instructions that were removed
system.switch_cpus00.iq.issued_per_cycle::samples    245789164                       # Number of insts issued each cycle
system.switch_cpus00.iq.issued_per_cycle::mean     0.551178                       # Number of insts issued each cycle
system.switch_cpus00.iq.issued_per_cycle::stdev     1.243888                       # Number of insts issued each cycle
system.switch_cpus00.iq.issued_per_cycle::underflows            0      0.00%      0.00% # Number of insts issued each cycle
system.switch_cpus00.iq.issued_per_cycle::0    188720758     76.78%     76.78% # Number of insts issued each cycle
system.switch_cpus00.iq.issued_per_cycle::1     22940230      9.33%     86.11% # Number of insts issued each cycle
system.switch_cpus00.iq.issued_per_cycle::2     12329147      5.02%     91.13% # Number of insts issued each cycle
system.switch_cpus00.iq.issued_per_cycle::3      8544011      3.48%     94.61% # Number of insts issued each cycle
system.switch_cpus00.iq.issued_per_cycle::4      7470078      3.04%     97.65% # Number of insts issued each cycle
system.switch_cpus00.iq.issued_per_cycle::5      3829786      1.56%     99.20% # Number of insts issued each cycle
system.switch_cpus00.iq.issued_per_cycle::6       916032      0.37%     99.58% # Number of insts issued each cycle
system.switch_cpus00.iq.issued_per_cycle::7       595381      0.24%     99.82% # Number of insts issued each cycle
system.switch_cpus00.iq.issued_per_cycle::8       443741      0.18%    100.00% # Number of insts issued each cycle
system.switch_cpus00.iq.issued_per_cycle::overflows            0      0.00%    100.00% # Number of insts issued each cycle
system.switch_cpus00.iq.issued_per_cycle::min_value            0                       # Number of insts issued each cycle
system.switch_cpus00.iq.issued_per_cycle::max_value            8                       # Number of insts issued each cycle
system.switch_cpus00.iq.issued_per_cycle::total    245789164                       # Number of insts issued each cycle
system.switch_cpus00.iq.fu_full::No_OpClass            0      0.00%      0.00% # attempts to use FU when none available
system.switch_cpus00.iq.fu_full::IntAlu         35513     12.07%     12.07% # attempts to use FU when none available
system.switch_cpus00.iq.fu_full::IntMult            0      0.00%     12.07% # attempts to use FU when none available
system.switch_cpus00.iq.fu_full::IntDiv             0      0.00%     12.07% # attempts to use FU when none available
system.switch_cpus00.iq.fu_full::FloatAdd            0      0.00%     12.07% # attempts to use FU when none available
system.switch_cpus00.iq.fu_full::FloatCmp            0      0.00%     12.07% # attempts to use FU when none available
system.switch_cpus00.iq.fu_full::FloatCvt            0      0.00%     12.07% # attempts to use FU when none available
system.switch_cpus00.iq.fu_full::FloatMult            0      0.00%     12.07% # attempts to use FU when none available
system.switch_cpus00.iq.fu_full::FloatDiv            0      0.00%     12.07% # attempts to use FU when none available
system.switch_cpus00.iq.fu_full::FloatSqrt            0      0.00%     12.07% # attempts to use FU when none available
system.switch_cpus00.iq.fu_full::SimdAdd            0      0.00%     12.07% # attempts to use FU when none available
system.switch_cpus00.iq.fu_full::SimdAddAcc            0      0.00%     12.07% # attempts to use FU when none available
system.switch_cpus00.iq.fu_full::SimdAlu            0      0.00%     12.07% # attempts to use FU when none available
system.switch_cpus00.iq.fu_full::SimdCmp            0      0.00%     12.07% # attempts to use FU when none available
system.switch_cpus00.iq.fu_full::SimdCvt            0      0.00%     12.07% # attempts to use FU when none available
system.switch_cpus00.iq.fu_full::SimdMisc            0      0.00%     12.07% # attempts to use FU when none available
system.switch_cpus00.iq.fu_full::SimdMult            0      0.00%     12.07% # attempts to use FU when none available
system.switch_cpus00.iq.fu_full::SimdMultAcc            0      0.00%     12.07% # attempts to use FU when none available
system.switch_cpus00.iq.fu_full::SimdShift            0      0.00%     12.07% # attempts to use FU when none available
system.switch_cpus00.iq.fu_full::SimdShiftAcc            0      0.00%     12.07% # attempts to use FU when none available
system.switch_cpus00.iq.fu_full::SimdSqrt            0      0.00%     12.07% # attempts to use FU when none available
system.switch_cpus00.iq.fu_full::SimdFloatAdd            0      0.00%     12.07% # attempts to use FU when none available
system.switch_cpus00.iq.fu_full::SimdFloatAlu            0      0.00%     12.07% # attempts to use FU when none available
system.switch_cpus00.iq.fu_full::SimdFloatCmp            0      0.00%     12.07% # attempts to use FU when none available
system.switch_cpus00.iq.fu_full::SimdFloatCvt            0      0.00%     12.07% # attempts to use FU when none available
system.switch_cpus00.iq.fu_full::SimdFloatDiv            0      0.00%     12.07% # attempts to use FU when none available
system.switch_cpus00.iq.fu_full::SimdFloatMisc            0      0.00%     12.07% # attempts to use FU when none available
system.switch_cpus00.iq.fu_full::SimdFloatMult            0      0.00%     12.07% # attempts to use FU when none available
system.switch_cpus00.iq.fu_full::SimdFloatMultAcc            0      0.00%     12.07% # attempts to use FU when none available
system.switch_cpus00.iq.fu_full::SimdFloatSqrt            0      0.00%     12.07% # attempts to use FU when none available
system.switch_cpus00.iq.fu_full::MemRead       127486     43.32%     55.39% # attempts to use FU when none available
system.switch_cpus00.iq.fu_full::MemWrite       131271     44.61%    100.00% # attempts to use FU when none available
system.switch_cpus00.iq.fu_full::IprAccess            0      0.00%    100.00% # attempts to use FU when none available
system.switch_cpus00.iq.fu_full::InstPrefetch            0      0.00%    100.00% # attempts to use FU when none available
system.switch_cpus00.iq.FU_type_0::No_OpClass            0      0.00%      0.00% # Type of FU issued
system.switch_cpus00.iq.FU_type_0::IntAlu    113395069     83.70%     83.70% # Type of FU issued
system.switch_cpus00.iq.FU_type_0::IntMult      2120050      1.56%     85.27% # Type of FU issued
system.switch_cpus00.iq.FU_type_0::IntDiv            0      0.00%     85.27% # Type of FU issued
system.switch_cpus00.iq.FU_type_0::FloatAdd            0      0.00%     85.27% # Type of FU issued
system.switch_cpus00.iq.FU_type_0::FloatCmp            0      0.00%     85.27% # Type of FU issued
system.switch_cpus00.iq.FU_type_0::FloatCvt            0      0.00%     85.27% # Type of FU issued
system.switch_cpus00.iq.FU_type_0::FloatMult            0      0.00%     85.27% # Type of FU issued
system.switch_cpus00.iq.FU_type_0::FloatDiv            0      0.00%     85.27% # Type of FU issued
system.switch_cpus00.iq.FU_type_0::FloatSqrt            0      0.00%     85.27% # Type of FU issued
system.switch_cpus00.iq.FU_type_0::SimdAdd            0      0.00%     85.27% # Type of FU issued
system.switch_cpus00.iq.FU_type_0::SimdAddAcc            0      0.00%     85.27% # Type of FU issued
system.switch_cpus00.iq.FU_type_0::SimdAlu            0      0.00%     85.27% # Type of FU issued
system.switch_cpus00.iq.FU_type_0::SimdCmp            0      0.00%     85.27% # Type of FU issued
system.switch_cpus00.iq.FU_type_0::SimdCvt            0      0.00%     85.27% # Type of FU issued
system.switch_cpus00.iq.FU_type_0::SimdMisc            0      0.00%     85.27% # Type of FU issued
system.switch_cpus00.iq.FU_type_0::SimdMult            0      0.00%     85.27% # Type of FU issued
system.switch_cpus00.iq.FU_type_0::SimdMultAcc            0      0.00%     85.27% # Type of FU issued
system.switch_cpus00.iq.FU_type_0::SimdShift            0      0.00%     85.27% # Type of FU issued
system.switch_cpus00.iq.FU_type_0::SimdShiftAcc            0      0.00%     85.27% # Type of FU issued
system.switch_cpus00.iq.FU_type_0::SimdSqrt            0      0.00%     85.27% # Type of FU issued
system.switch_cpus00.iq.FU_type_0::SimdFloatAdd            0      0.00%     85.27% # Type of FU issued
system.switch_cpus00.iq.FU_type_0::SimdFloatAlu            0      0.00%     85.27% # Type of FU issued
system.switch_cpus00.iq.FU_type_0::SimdFloatCmp            0      0.00%     85.27% # Type of FU issued
system.switch_cpus00.iq.FU_type_0::SimdFloatCvt            0      0.00%     85.27% # Type of FU issued
system.switch_cpus00.iq.FU_type_0::SimdFloatDiv            0      0.00%     85.27% # Type of FU issued
system.switch_cpus00.iq.FU_type_0::SimdFloatMisc        16584      0.01%     85.28% # Type of FU issued
system.switch_cpus00.iq.FU_type_0::SimdFloatMult            0      0.00%     85.28% # Type of FU issued
system.switch_cpus00.iq.FU_type_0::SimdFloatMultAcc            0      0.00%     85.28% # Type of FU issued
system.switch_cpus00.iq.FU_type_0::SimdFloatSqrt            0      0.00%     85.28% # Type of FU issued
system.switch_cpus00.iq.FU_type_0::MemRead     12526112      9.25%     94.53% # Type of FU issued
system.switch_cpus00.iq.FU_type_0::MemWrite      7415771      5.47%    100.00% # Type of FU issued
system.switch_cpus00.iq.FU_type_0::IprAccess            0      0.00%    100.00% # Type of FU issued
system.switch_cpus00.iq.FU_type_0::InstPrefetch            0      0.00%    100.00% # Type of FU issued
system.switch_cpus00.iq.FU_type_0::total    135473586                       # Type of FU issued
system.switch_cpus00.iq.rate                 0.480042                       # Inst issue rate
system.switch_cpus00.iq.fu_busy_cnt            294270                       # FU busy when requested
system.switch_cpus00.iq.fu_busy_rate         0.002172                       # FU busy rate (busy events/executed inst)
system.switch_cpus00.iq.int_inst_queue_reads    517222659                       # Number of integer instruction queue reads
system.switch_cpus00.iq.int_inst_queue_writes    161544950                       # Number of integer instruction queue writes
system.switch_cpus00.iq.int_inst_queue_wakeup_accesses    133225532                       # Number of integer instruction queue wakeup accesses
system.switch_cpus00.iq.fp_inst_queue_reads            0                       # Number of floating instruction queue reads
system.switch_cpus00.iq.fp_inst_queue_writes            0                       # Number of floating instruction queue writes
system.switch_cpus00.iq.fp_inst_queue_wakeup_accesses            0                       # Number of floating instruction queue wakeup accesses
system.switch_cpus00.iq.int_alu_accesses    135767856                       # Number of integer alu accesses
system.switch_cpus00.iq.fp_alu_accesses             0                       # Number of floating point alu accesses
system.switch_cpus00.iew.lsq.thread0.forwLoads       341769                       # Number of loads that had data forwarded from stores
system.switch_cpus00.iew.lsq.thread0.invAddrLoads            0                       # Number of loads ignored due to an invalid address
system.switch_cpus00.iew.lsq.thread0.squashedLoads      2441858                       # Number of loads squashed
system.switch_cpus00.iew.lsq.thread0.ignoredResponses          868                       # Number of memory responses ignored because the instruction is squashed
system.switch_cpus00.iew.lsq.thread0.memOrderViolation         1288                       # Number of memory ordering violations
system.switch_cpus00.iew.lsq.thread0.squashedStores       168668                       # Number of stores squashed
system.switch_cpus00.iew.lsq.thread0.invAddrSwpfs            0                       # Number of software prefetches ignored due to an invalid address
system.switch_cpus00.iew.lsq.thread0.blockedLoads            0                       # Number of blocked loads due to partial load-store forwarding
system.switch_cpus00.iew.lsq.thread0.rescheduledLoads         8293                       # Number of loads that were rescheduled
system.switch_cpus00.iew.lsq.thread0.cacheBlocked         4211                       # Number of times an access to memory failed due to the cache being blocked
system.switch_cpus00.iew.iewIdleCycles              0                       # Number of cycles IEW is idle
system.switch_cpus00.iew.iewSquashCycles      3689099                       # Number of cycles IEW is squashing
system.switch_cpus00.iew.iewBlockCycles       6139646                       # Number of cycles IEW is blocking
system.switch_cpus00.iew.iewUnblockCycles       149941                       # Number of cycles IEW is unblocking
system.switch_cpus00.iew.iewDispatchedInsts    143472386                       # Number of instructions dispatched to IQ
system.switch_cpus00.iew.iewDispSquashedInsts        73597                       # Number of squashed instructions skipped by dispatch
system.switch_cpus00.iew.iewDispLoadInsts     13725541                       # Number of dispatched load instructions
system.switch_cpus00.iew.iewDispStoreInsts      7469340                       # Number of dispatched store instructions
system.switch_cpus00.iew.iewDispNonSpecInsts        20863                       # Number of dispatched non-speculative instructions
system.switch_cpus00.iew.iewIQFullEvents       105077                       # Number of times the IQ has become full, causing a stall
system.switch_cpus00.iew.iewLSQFullEvents            2                       # Number of times the LSQ has become full, causing a stall
system.switch_cpus00.iew.memOrderViolationEvents         1288                       # Number of memory order violations
system.switch_cpus00.iew.predictedTakenIncorrect      1170745                       # Number of branches that were predicted taken incorrectly
system.switch_cpus00.iew.predictedNotTakenIncorrect      1141609                       # Number of branches that were predicted not taken incorrectly
system.switch_cpus00.iew.branchMispredicts      2312354                       # Number of branch mispredicts detected at execute
system.switch_cpus00.iew.iewExecutedInsts    133482158                       # Number of executed instructions
system.switch_cpus00.iew.iewExecLoadInsts     11763011                       # Number of load instructions executed
system.switch_cpus00.iew.iewExecSquashedInsts      1991424                       # Number of squashed instructions skipped in execute
system.switch_cpus00.iew.exec_swp                   0                       # number of swp insts executed
system.switch_cpus00.iew.exec_nop                 116                       # number of nop insts executed
system.switch_cpus00.iew.exec_refs           19177132                       # number of memory reference insts executed
system.switch_cpus00.iew.exec_branches       18673224                       # Number of branches executed
system.switch_cpus00.iew.exec_stores          7414121                       # Number of stores executed
system.switch_cpus00.iew.exec_rate           0.472986                       # Inst execution rate
system.switch_cpus00.iew.wb_sent            133227644                       # cumulative count of insts sent to commit
system.switch_cpus00.iew.wb_count           133225532                       # cumulative count of insts written-back
system.switch_cpus00.iew.wb_producers        79189468                       # num instructions producing a value
system.switch_cpus00.iew.wb_consumers       207465490                       # num instructions consuming a value
system.switch_cpus00.iew.wb_penalized               0                       # number of instrctions required to write to 'other' IQ
system.switch_cpus00.iew.wb_rate             0.472076                       # insts written-back per cycle
system.switch_cpus00.iew.wb_fanout           0.381699                       # average fanout of values written-back
system.switch_cpus00.iew.wb_penalized_rate            0                       # fraction of instructions written-back that wrote to 'other' IQ
system.switch_cpus00.commit.commitCommittedInsts    100000003                       # The number of committed instructions
system.switch_cpus00.commit.commitCommittedOps    122687896                       # The number of committed instructions
system.switch_cpus00.commit.commitSquashedInsts     20785688                       # The number of squashed insts skipped by commit
system.switch_cpus00.commit.commitNonSpecStalls        33450                       # The number of times commit has been forced to stall to communicate backwards
system.switch_cpus00.commit.branchMispredicts      2036984                       # The number of times a branch was mispredicted
system.switch_cpus00.commit.committed_per_cycle::samples    242100065                       # Number of insts commited each cycle
system.switch_cpus00.commit.committed_per_cycle::mean     0.506765                       # Number of insts commited each cycle
system.switch_cpus00.commit.committed_per_cycle::stdev     1.323321                       # Number of insts commited each cycle
system.switch_cpus00.commit.committed_per_cycle::underflows            0      0.00%      0.00% # Number of insts commited each cycle
system.switch_cpus00.commit.committed_per_cycle::0    191980077     79.30%     79.30% # Number of insts commited each cycle
system.switch_cpus00.commit.committed_per_cycle::1     23244342      9.60%     88.90% # Number of insts commited each cycle
system.switch_cpus00.commit.committed_per_cycle::2      9740629      4.02%     92.92% # Number of insts commited each cycle
system.switch_cpus00.commit.committed_per_cycle::3      5851402      2.42%     95.34% # Number of insts commited each cycle
system.switch_cpus00.commit.committed_per_cycle::4      4052133      1.67%     97.01% # Number of insts commited each cycle
system.switch_cpus00.commit.committed_per_cycle::5      2613236      1.08%     98.09% # Number of insts commited each cycle
system.switch_cpus00.commit.committed_per_cycle::6      1360493      0.56%     98.65% # Number of insts commited each cycle
system.switch_cpus00.commit.committed_per_cycle::7      1091604      0.45%     99.11% # Number of insts commited each cycle
system.switch_cpus00.commit.committed_per_cycle::8      2166149      0.89%    100.00% # Number of insts commited each cycle
system.switch_cpus00.commit.committed_per_cycle::overflows            0      0.00%    100.00% # Number of insts commited each cycle
system.switch_cpus00.commit.committed_per_cycle::min_value            0                       # Number of insts commited each cycle
system.switch_cpus00.commit.committed_per_cycle::max_value            8                       # Number of insts commited each cycle
system.switch_cpus00.commit.committed_per_cycle::total    242100065                       # Number of insts commited each cycle
system.switch_cpus00.commit.committedInsts    100000003                       # Number of instructions committed
system.switch_cpus00.commit.committedOps    122687896                       # Number of ops (including micro ops) committed
system.switch_cpus00.commit.swp_count               0                       # Number of s/w prefetches committed
system.switch_cpus00.commit.refs             18584355                       # Number of memory references committed
system.switch_cpus00.commit.loads            11283683                       # Number of loads committed
system.switch_cpus00.commit.membars             16688                       # Number of memory barriers committed
system.switch_cpus00.commit.branches         17558823                       # Number of branches committed
system.switch_cpus00.commit.fp_insts                0                       # Number of committed floating point instructions.
system.switch_cpus00.commit.int_insts       110607967                       # Number of committed integer instructions.
system.switch_cpus00.commit.function_calls      2496073                       # Number of function calls committed.
system.switch_cpus00.commit.bw_lim_events      2166149                       # number cycles where commit BW limit reached
system.switch_cpus00.commit.bw_limited              0                       # number of insts not committed due to BW limits
system.switch_cpus00.rob.rob_reads          383406824                       # The number of ROB reads
system.switch_cpus00.rob.rob_writes         290636363                       # The number of ROB writes
system.switch_cpus00.timesIdled               3027420                       # Number of times that the entire CPU went into an idle state and unscheduled itself
system.switch_cpus00.idleCycles              36422687                       # Total number of cycles that the CPU has spent unscheduled due to idling
system.switch_cpus00.committedInsts         100000003                       # Number of Instructions Simulated
system.switch_cpus00.committedOps           122687896                       # Number of Ops (including micro ops) Simulated
system.switch_cpus00.committedInsts_total    100000003                       # Number of Instructions Simulated
system.switch_cpus00.cpi                     2.822118                       # CPI: Cycles Per Instruction
system.switch_cpus00.cpi_total               2.822118                       # CPI: Total CPI of All Threads
system.switch_cpus00.ipc                     0.354344                       # IPC: Instructions Per Cycle
system.switch_cpus00.ipc_total               0.354344                       # IPC: Total IPC of All Threads
system.switch_cpus00.int_regfile_reads      602082390                       # number of integer regfile reads
system.switch_cpus00.int_regfile_writes     184891217                       # number of integer regfile writes
system.switch_cpus00.misc_regfile_reads     134149985                       # number of misc regfile reads
system.switch_cpus00.misc_regfile_writes        33420                       # number of misc regfile writes
system.switch_cpus01.dtb.inst_hits                  0                       # ITB inst hits
system.switch_cpus01.dtb.inst_misses                0                       # ITB inst misses
system.switch_cpus01.dtb.read_hits                  0                       # DTB read hits
system.switch_cpus01.dtb.read_misses                0                       # DTB read misses
system.switch_cpus01.dtb.write_hits                 0                       # DTB write hits
system.switch_cpus01.dtb.write_misses               0                       # DTB write misses
system.switch_cpus01.dtb.flush_tlb                  0                       # Number of times complete TLB was flushed
system.switch_cpus01.dtb.flush_tlb_mva              0                       # Number of times TLB was flushed by MVA
system.switch_cpus01.dtb.flush_tlb_mva_asid            0                       # Number of times TLB was flushed by MVA & ASID
system.switch_cpus01.dtb.flush_tlb_asid             0                       # Number of times TLB was flushed by ASID
system.switch_cpus01.dtb.flush_entries              0                       # Number of entries that have been flushed from TLB
system.switch_cpus01.dtb.align_faults               0                       # Number of TLB faults due to alignment restrictions
system.switch_cpus01.dtb.prefetch_faults            0                       # Number of TLB faults due to prefetch
system.switch_cpus01.dtb.domain_faults              0                       # Number of TLB faults due to domain restrictions
system.switch_cpus01.dtb.perms_faults               0                       # Number of TLB faults due to permissions restrictions
system.switch_cpus01.dtb.read_accesses              0                       # DTB read accesses
system.switch_cpus01.dtb.write_accesses             0                       # DTB write accesses
system.switch_cpus01.dtb.inst_accesses              0                       # ITB inst accesses
system.switch_cpus01.dtb.hits                       0                       # DTB hits
system.switch_cpus01.dtb.misses                     0                       # DTB misses
system.switch_cpus01.dtb.accesses                   0                       # DTB accesses
[...]
system.cpu15.icache.demand_avg_miss_latency::total 3252695.217391                       # average overall miss latency
system.cpu15.icache.overall_avg_miss_latency::switch_cpus15.inst 3252695.217391                       # average overall miss latency
system.cpu15.icache.overall_avg_miss_latency::total 3252695.217391                       # average overall miss latency
system.cpu15.icache.blocked_cycles::no_mshrs      3234245                       # number of cycles access was blocked
system.cpu15.icache.blocked_cycles::no_targets            0                       # number of cycles access was blocked
system.cpu15.icache.blocked::no_mshrs               3                       # number of cycles access was blocked
system.cpu15.icache.blocked::no_targets             0                       # number of cycles access was blocked
system.cpu15.icache.avg_blocked_cycles::no_mshrs 1078081.666667                       # average number of cycles each access was blocked
system.cpu15.icache.avg_blocked_cycles::no_targets          nan                       # average number of cycles each access was blocked
system.cpu15.icache.fast_writes                     0                       # number of fast writes performed
system.cpu15.icache.cache_copies                    0                       # number of cache copies performed
system.cpu15.icache.ReadReq_mshr_hits::switch_cpus15.inst           10                       # number of ReadReq MSHR hits
system.cpu15.icache.ReadReq_mshr_hits::total           10                       # number of ReadReq MSHR hits
system.cpu15.icache.demand_mshr_hits::switch_cpus15.inst           10                       # number of demand (read+write) MSHR hits
system.cpu15.icache.demand_mshr_hits::total           10                       # number of demand (read+write) MSHR hits
system.cpu15.icache.overall_mshr_hits::switch_cpus15.inst           10                       # number of overall MSHR hits
system.cpu15.icache.overall_mshr_hits::total           10                       # number of overall MSHR hits
system.cpu15.icache.ReadReq_mshr_misses::switch_cpus15.inst           36                       # number of ReadReq MSHR misses
system.cpu15.icache.ReadReq_mshr_misses::total           36                       # number of ReadReq MSHR misses
system.cpu15.icache.demand_mshr_misses::switch_cpus15.inst           36                       # number of demand (read+write) MSHR misses
system.cpu15.icache.demand_mshr_misses::total           36                       # number of demand (read+write) MSHR misses
system.cpu15.icache.overall_mshr_misses::switch_cpus15.inst           36                       # number of overall MSHR misses
system.cpu15.icache.overall_mshr_misses::total           36                       # number of overall MSHR misses
system.cpu15.icache.ReadReq_mshr_miss_latency::switch_cpus15.inst    102284214                       # number of ReadReq MSHR miss cycles
system.cpu15.icache.ReadReq_mshr_miss_latency::total    102284214                       # number of ReadReq MSHR miss cycles
system.cpu15.icache.demand_mshr_miss_latency::switch_cpus15.inst    102284214                       # number of demand (read+write) MSHR miss cycles
system.cpu15.icache.demand_mshr_miss_latency::total    102284214                       # number of demand (read+write) MSHR miss cycles
system.cpu15.icache.overall_mshr_miss_latency::switch_cpus15.inst    102284214                       # number of overall MSHR miss cycles
system.cpu15.icache.overall_mshr_miss_latency::total    102284214                       # number of overall MSHR miss cycles
system.cpu15.icache.ReadReq_mshr_miss_rate::switch_cpus15.inst     0.000003                       # mshr miss rate for ReadReq accesses
system.cpu15.icache.ReadReq_mshr_miss_rate::total     0.000003                       # mshr miss rate for ReadReq accesses
system.cpu15.icache.demand_mshr_miss_rate::switch_cpus15.inst     0.000003                       # mshr miss rate for demand accesses
system.cpu15.icache.demand_mshr_miss_rate::total     0.000003                       # mshr miss rate for demand accesses
system.cpu15.icache.overall_mshr_miss_rate::switch_cpus15.inst     0.000003                       # mshr miss rate for overall accesses
system.cpu15.icache.overall_mshr_miss_rate::total     0.000003                       # mshr miss rate for overall accesses
system.cpu15.icache.ReadReq_avg_mshr_miss_latency::switch_cpus15.inst 2841228.166667                       # average ReadReq mshr miss latency
system.cpu15.icache.ReadReq_avg_mshr_miss_latency::total 2841228.166667                       # average ReadReq mshr miss latency
system.cpu15.icache.demand_avg_mshr_miss_latency::switch_cpus15.inst 2841228.166667                       # average overall mshr miss latency
system.cpu15.icache.demand_avg_mshr_miss_latency::total 2841228.166667                       # average overall mshr miss latency
system.cpu15.icache.overall_avg_mshr_miss_latency::switch_cpus15.inst 2841228.166667                       # average overall mshr miss latency
system.cpu15.icache.overall_avg_mshr_miss_latency::total 2841228.166667                       # average overall mshr miss latency
system.cpu15.icache.no_allocate_misses              0                       # Number of misses that were no-allocate
system.cpu15.dcache.replacements                39094                       # number of replacements
system.cpu15.dcache.tagsinuse                     256                       # Cycle average of tags in use
system.cpu15.dcache.total_refs              165486564                       # Total number of references to valid blocks.
system.cpu15.dcache.sampled_refs                39350                       # Sample count of references to valid blocks.
system.cpu15.dcache.avg_refs              4205.503532                       # Average number of references to valid blocks.
system.cpu15.dcache.warmup_cycle                    0                       # Cycle when the warmup percentage was hit.
system.cpu15.dcache.occ_blocks::switch_cpus15.data   233.561690                       # Average occupied blocks per requestor
system.cpu15.dcache.occ_blocks::cpu15.data    22.438310                       # Average occupied blocks per requestor
system.cpu15.dcache.occ_percent::switch_cpus15.data     0.912350                       # Average percentage of cache occupancy
system.cpu15.dcache.occ_percent::cpu15.data     0.087650                       # Average percentage of cache occupancy
system.cpu15.dcache.occ_percent::total              1                       # Average percentage of cache occupancy
system.cpu15.dcache.ReadReq_hits::switch_cpus15.data     10563241                       # number of ReadReq hits
system.cpu15.dcache.ReadReq_hits::total      10563241                       # number of ReadReq hits
system.cpu15.dcache.WriteReq_hits::switch_cpus15.data      7846854                       # number of WriteReq hits
system.cpu15.dcache.WriteReq_hits::total      7846854                       # number of WriteReq hits
system.cpu15.dcache.LoadLockedReq_hits::switch_cpus15.data        20426                       # number of LoadLockedReq hits
system.cpu15.dcache.LoadLockedReq_hits::total        20426                       # number of LoadLockedReq hits
system.cpu15.dcache.StoreCondReq_hits::switch_cpus15.data        19085                       # number of StoreCondReq hits
system.cpu15.dcache.StoreCondReq_hits::total        19085                       # number of StoreCondReq hits
system.cpu15.dcache.demand_hits::switch_cpus15.data     18410095                       # number of demand (read+write) hits
system.cpu15.dcache.demand_hits::total       18410095                       # number of demand (read+write) hits
system.cpu15.dcache.overall_hits::switch_cpus15.data     18410095                       # number of overall hits
system.cpu15.dcache.overall_hits::total      18410095                       # number of overall hits
system.cpu15.dcache.ReadReq_misses::switch_cpus15.data       100801                       # number of ReadReq misses
system.cpu15.dcache.ReadReq_misses::total       100801                       # number of ReadReq misses
system.cpu15.dcache.WriteReq_misses::switch_cpus15.data         2274                       # number of WriteReq misses
system.cpu15.dcache.WriteReq_misses::total         2274                       # number of WriteReq misses
system.cpu15.dcache.demand_misses::switch_cpus15.data       103075                       # number of demand (read+write) misses
system.cpu15.dcache.demand_misses::total       103075                       # number of demand (read+write) misses
system.cpu15.dcache.overall_misses::switch_cpus15.data       103075                       # number of overall misses
system.cpu15.dcache.overall_misses::total       103075                       # number of overall misses
system.cpu15.dcache.ReadReq_miss_latency::switch_cpus15.data  22395066312                       # number of ReadReq miss cycles
system.cpu15.dcache.ReadReq_miss_latency::total  22395066312                       # number of ReadReq miss cycles
system.cpu15.dcache.WriteReq_miss_latency::switch_cpus15.data    146804582                       # number of WriteReq miss cycles
system.cpu15.dcache.WriteReq_miss_latency::total    146804582                       # number of WriteReq miss cycles
system.cpu15.dcache.demand_miss_latency::switch_cpus15.data  22541870894                       # number of demand (read+write) miss cycles
system.cpu15.dcache.demand_miss_latency::total  22541870894                       # number of demand (read+write) miss cycles
system.cpu15.dcache.overall_miss_latency::switch_cpus15.data  22541870894                       # number of overall miss cycles
system.cpu15.dcache.overall_miss_latency::total  22541870894                       # number of overall miss cycles
system.cpu15.dcache.ReadReq_accesses::switch_cpus15.data     10664042                       # number of ReadReq accesses(hits+misses)
system.cpu15.dcache.ReadReq_accesses::total     10664042                       # number of ReadReq accesses(hits+misses)
system.cpu15.dcache.WriteReq_accesses::switch_cpus15.data      7849128                       # number of WriteReq accesses(hits+misses)
system.cpu15.dcache.WriteReq_accesses::total      7849128                       # number of WriteReq accesses(hits+misses)
system.cpu15.dcache.LoadLockedReq_accesses::switch_cpus15.data        20426                       # number of LoadLockedReq accesses(hits+misses)
system.cpu15.dcache.LoadLockedReq_accesses::total        20426                       # number of LoadLockedReq accesses(hits+misses)
system.cpu15.dcache.StoreCondReq_accesses::switch_cpus15.data        19085                       # number of StoreCondReq accesses(hits+misses)
system.cpu15.dcache.StoreCondReq_accesses::total        19085                       # number of StoreCondReq accesses(hits+misses)
system.cpu15.dcache.demand_accesses::switch_cpus15.data     18513170                       # number of demand (read+write) accesses
system.cpu15.dcache.demand_accesses::total     18513170                       # number of demand (read+write) accesses
system.cpu15.dcache.overall_accesses::switch_cpus15.data     18513170                       # number of overall (read+write) accesses
system.cpu15.dcache.overall_accesses::total     18513170                       # number of overall (read+write) accesses
system.cpu15.dcache.ReadReq_miss_rate::switch_cpus15.data     0.009452                       # miss rate for ReadReq accesses
system.cpu15.dcache.ReadReq_miss_rate::total     0.009452                       # miss rate for ReadReq accesses
system.cpu15.dcache.WriteReq_miss_rate::switch_cpus15.data     0.000290                       # miss rate for WriteReq accesses
system.cpu15.dcache.WriteReq_miss_rate::total     0.000290                       # miss rate for WriteReq accesses
system.cpu15.dcache.demand_miss_rate::switch_cpus15.data     0.005568                       # miss rate for demand accesses
system.cpu15.dcache.demand_miss_rate::total     0.005568                       # miss rate for demand accesses
system.cpu15.dcache.overall_miss_rate::switch_cpus15.data     0.005568                       # miss rate for overall accesses
system.cpu15.dcache.overall_miss_rate::total     0.005568                       # miss rate for overall accesses
system.cpu15.dcache.ReadReq_avg_miss_latency::switch_cpus15.data 222171.072827                       # average ReadReq miss latency
system.cpu15.dcache.ReadReq_avg_miss_latency::total 222171.072827                       # average ReadReq miss latency
system.cpu15.dcache.WriteReq_avg_miss_latency::switch_cpus15.data 64557.863676                       # average WriteReq miss latency
system.cpu15.dcache.WriteReq_avg_miss_latency::total 64557.863676                       # average WriteReq miss latency
system.cpu15.dcache.demand_avg_miss_latency::switch_cpus15.data 218693.872365                       # average overall miss latency
system.cpu15.dcache.demand_avg_miss_latency::total 218693.872365                       # average overall miss latency
system.cpu15.dcache.overall_avg_miss_latency::switch_cpus15.data 218693.872365                       # average overall miss latency
system.cpu15.dcache.overall_avg_miss_latency::total 218693.872365                       # average overall miss latency
system.cpu15.dcache.blocked_cycles::no_mshrs            0                       # number of cycles access was blocked
system.cpu15.dcache.blocked_cycles::no_targets            0                       # number of cycles access was blocked
system.cpu15.dcache.blocked::no_mshrs               0                       # number of cycles access was blocked
system.cpu15.dcache.blocked::no_targets             0                       # number of cycles access was blocked
system.cpu15.dcache.avg_blocked_cycles::no_mshrs          nan                       # average number of cycles each access was blocked
system.cpu15.dcache.avg_blocked_cycles::no_targets          nan                       # average number of cycles each access was blocked
system.cpu15.dcache.fast_writes                     0                       # number of fast writes performed
system.cpu15.dcache.cache_copies                    0                       # number of cache copies performed
system.cpu15.dcache.writebacks::writebacks         9297                       # number of writebacks
system.cpu15.dcache.writebacks::total            9297                       # number of writebacks
system.cpu15.dcache.ReadReq_mshr_hits::switch_cpus15.data        61932                       # number of ReadReq MSHR hits
system.cpu15.dcache.ReadReq_mshr_hits::total        61932                       # number of ReadReq MSHR hits
system.cpu15.dcache.WriteReq_mshr_hits::switch_cpus15.data         2049                       # number of WriteReq MSHR hits
system.cpu15.dcache.WriteReq_mshr_hits::total         2049                       # number of WriteReq MSHR hits
system.cpu15.dcache.demand_mshr_hits::switch_cpus15.data        63981                       # number of demand (read+write) MSHR hits
system.cpu15.dcache.demand_mshr_hits::total        63981                       # number of demand (read+write) MSHR hits
system.cpu15.dcache.overall_mshr_hits::switch_cpus15.data        63981                       # number of overall MSHR hits
system.cpu15.dcache.overall_mshr_hits::total        63981                       # number of overall MSHR hits
system.cpu15.dcache.ReadReq_mshr_misses::switch_cpus15.data        38869                       # number of ReadReq MSHR misses
system.cpu15.dcache.ReadReq_mshr_misses::total        38869                       # number of ReadReq MSHR misses
system.cpu15.dcache.WriteReq_mshr_misses::switch_cpus15.data          225                       # number of WriteReq MSHR misses
system.cpu15.dcache.WriteReq_mshr_misses::total          225                       # number of WriteReq MSHR misses
system.cpu15.dcache.demand_mshr_misses::switch_cpus15.data        39094                       # number of demand (read+write) MSHR misses
system.cpu15.dcache.demand_mshr_misses::total        39094                       # number of demand (read+write) MSHR misses
system.cpu15.dcache.overall_mshr_misses::switch_cpus15.data        39094                       # number of overall MSHR misses
system.cpu15.dcache.overall_mshr_misses::total        39094                       # number of overall MSHR misses
system.cpu15.dcache.ReadReq_mshr_miss_latency::switch_cpus15.data   9326368609                       # number of ReadReq MSHR miss cycles
system.cpu15.dcache.ReadReq_mshr_miss_latency::total   9326368609                       # number of ReadReq MSHR miss cycles
system.cpu15.dcache.WriteReq_mshr_miss_latency::switch_cpus15.data     16414172                       # number of WriteReq MSHR miss cycles
system.cpu15.dcache.WriteReq_mshr_miss_latency::total     16414172                       # number of WriteReq MSHR miss cycles
system.cpu15.dcache.demand_mshr_miss_latency::switch_cpus15.data   9342782781                       # number of demand (read+write) MSHR miss cycles
system.cpu15.dcache.demand_mshr_miss_latency::total   9342782781                       # number of demand (read+write) MSHR miss cycles
system.cpu15.dcache.overall_mshr_miss_latency::switch_cpus15.data   9342782781                       # number of overall MSHR miss cycles
system.cpu15.dcache.overall_mshr_miss_latency::total   9342782781                       # number of overall MSHR miss cycles
system.cpu15.dcache.ReadReq_mshr_miss_rate::switch_cpus15.data     0.003645                       # mshr miss rate for ReadReq accesses
system.cpu15.dcache.ReadReq_mshr_miss_rate::total     0.003645                       # mshr miss rate for ReadReq accesses
system.cpu15.dcache.WriteReq_mshr_miss_rate::switch_cpus15.data     0.000029                       # mshr miss rate for WriteReq accesses
system.cpu15.dcache.WriteReq_mshr_miss_rate::total     0.000029                       # mshr miss rate for WriteReq accesses
system.cpu15.dcache.demand_mshr_miss_rate::switch_cpus15.data     0.002112                       # mshr miss rate for demand accesses
system.cpu15.dcache.demand_mshr_miss_rate::total     0.002112                       # mshr miss rate for demand accesses
system.cpu15.dcache.overall_mshr_miss_rate::switch_cpus15.data     0.002112                       # mshr miss rate for overall accesses
system.cpu15.dcache.overall_mshr_miss_rate::total     0.002112                       # mshr miss rate for overall accesses
system.cpu15.dcache.ReadReq_avg_mshr_miss_latency::switch_cpus15.data 239943.621112                       # average ReadReq mshr miss latency
system.cpu15.dcache.ReadReq_avg_mshr_miss_latency::total 239943.621112                       # average ReadReq mshr miss latency
system.cpu15.dcache.WriteReq_avg_mshr_miss_latency::switch_cpus15.data 72951.875556                       # average WriteReq mshr miss latency
system.cpu15.dcache.WriteReq_avg_mshr_miss_latency::total 72951.875556                       # average WriteReq mshr miss latency
system.cpu15.dcache.demand_avg_mshr_miss_latency::switch_cpus15.data 238982.523686                       # average overall mshr miss latency
system.cpu15.dcache.demand_avg_mshr_miss_latency::total 238982.523686                       # average overall mshr miss latency
system.cpu15.dcache.overall_avg_mshr_miss_latency::switch_cpus15.data 238982.523686                       # average overall mshr miss latency
system.cpu15.dcache.overall_avg_mshr_miss_latency::total 238982.523686                       # average overall mshr miss latency
system.cpu15.dcache.no_allocate_misses              0                       # Number of misses that were no-allocate

---------- End Simulation Statistics   ----------
