
---------- Begin Simulation Statistics ----------
sim_seconds                                  0.010670                       # Number of seconds simulated
sim_ticks                                 10669950804                       # Number of ticks simulated
final_tick                               535497544341                       # Number of ticks from beginning of simulation (restored from checkpoints and never reset)
sim_freq                                 1000000000000                       # Frequency of simulated ticks
host_inst_rate                                 394744                       # Simulator instruction rate (inst/s)
host_op_rate                                   506880                       # Simulator op (including micro ops) rate (op/s)
host_tick_rate                                 266030                       # Simulator tick rate (ticks/s)
host_mem_usage                               67620556                       # Number of bytes of host memory used
host_seconds                                 40108.06                       # Real time elapsed on the host
sim_insts                                 15832398027                       # Number of instructions simulated
sim_ops                                   20329983625                       # Number of ops (including micro ops) simulated
system.physmem.bytes_read::switch_cpus00.inst         4480                       # Number of bytes read from this memory
system.physmem.bytes_read::switch_cpus00.data       368384                       # Number of bytes read from this memory
system.physmem.bytes_read::switch_cpus01.inst         4224                       # Number of bytes read from this memory
system.physmem.bytes_read::switch_cpus01.data       366080                       # Number of bytes read from this memory
system.physmem.bytes_read::switch_cpus02.inst         3968                       # Number of bytes read from this memory
system.physmem.bytes_read::switch_cpus02.data       264960                       # Number of bytes read from this memory
system.physmem.bytes_read::switch_cpus03.inst         4736                       # Number of bytes read from this memory
system.physmem.bytes_read::switch_cpus03.data       173952                       # Number of bytes read from this memory
system.physmem.bytes_read::switch_cpus04.inst         4480                       # Number of bytes read from this memory
system.physmem.bytes_read::switch_cpus04.data       140288                       # Number of bytes read from this memory
system.physmem.bytes_read::switch_cpus05.inst         4224                       # Number of bytes read from this memory
system.physmem.bytes_read::switch_cpus05.data       140800                       # Number of bytes read from this memory
system.physmem.bytes_read::switch_cpus06.inst         3584                       # Number of bytes read from this memory
system.physmem.bytes_read::switch_cpus06.data       264832                       # Number of bytes read from this memory
system.physmem.bytes_read::switch_cpus07.inst         4864                       # Number of bytes read from this memory
system.physmem.bytes_read::switch_cpus07.data       142336                       # Number of bytes read from this memory
system.physmem.bytes_read::switch_cpus08.inst         3840                       # Number of bytes read from this memory
system.physmem.bytes_read::switch_cpus08.data       263680                       # Number of bytes read from this memory
system.physmem.bytes_read::switch_cpus09.inst         4608                       # Number of bytes read from this memory
system.physmem.bytes_read::switch_cpus09.data       379904                       # Number of bytes read from this memory
system.physmem.bytes_read::switch_cpus10.inst         4352                       # Number of bytes read from this memory
system.physmem.bytes_read::switch_cpus10.data       140544                       # Number of bytes read from this memory
system.physmem.bytes_read::switch_cpus11.inst         4864                       # Number of bytes read from this memory
system.physmem.bytes_read::switch_cpus11.data       164992                       # Number of bytes read from this memory
system.physmem.bytes_read::switch_cpus12.inst         4480                       # Number of bytes read from this memory
system.physmem.bytes_read::switch_cpus12.data       381952                       # Number of bytes read from this memory
system.physmem.bytes_read::switch_cpus13.inst         4992                       # Number of bytes read from this memory
system.physmem.bytes_read::switch_cpus13.data       159872                       # Number of bytes read from this memory
system.physmem.bytes_read::switch_cpus14.inst         4480                       # Number of bytes read from this memory
system.physmem.bytes_read::switch_cpus14.data       160640                       # Number of bytes read from this memory
system.physmem.bytes_read::switch_cpus15.inst         3968                       # Number of bytes read from this memory
system.physmem.bytes_read::switch_cpus15.data       257280                       # Number of bytes read from this memory
system.physmem.bytes_read::total              3840640                       # Number of bytes read from this memory
system.physmem.bytes_inst_read::switch_cpus00.inst         4480                       # Number of instructions bytes read from this memory
system.physmem.bytes_inst_read::switch_cpus01.inst         4224                       # Number of instructions bytes read from this memory
system.physmem.bytes_inst_read::switch_cpus02.inst         3968                       # Number of instructions bytes read from this memory
system.physmem.bytes_inst_read::switch_cpus03.inst         4736                       # Number of instructions bytes read from this memory
system.physmem.bytes_inst_read::switch_cpus04.inst         4480                       # Number of instructions bytes read from this memory
system.physmem.bytes_inst_read::switch_cpus05.inst         4224                       # Number of instructions bytes read from this memory
system.physmem.bytes_inst_read::switch_cpus06.inst         3584                       # Number of instructions bytes read from this memory
system.physmem.bytes_inst_read::switch_cpus07.inst         4864                       # Number of instructions bytes read from this memory
system.physmem.bytes_inst_read::switch_cpus08.inst         3840                       # Number of instructions bytes read from this memory
system.physmem.bytes_inst_read::switch_cpus09.inst         4608                       # Number of instructions bytes read from this memory
system.physmem.bytes_inst_read::switch_cpus10.inst         4352                       # Number of instructions bytes read from this memory
system.physmem.bytes_inst_read::switch_cpus11.inst         4864                       # Number of instructions bytes read from this memory
system.physmem.bytes_inst_read::switch_cpus12.inst         4480                       # Number of instructions bytes read from this memory
system.physmem.bytes_inst_read::switch_cpus13.inst         4992                       # Number of instructions bytes read from this memory
system.physmem.bytes_inst_read::switch_cpus14.inst         4480                       # Number of instructions bytes read from this memory
system.physmem.bytes_inst_read::switch_cpus15.inst         3968                       # Number of instructions bytes read from this memory
system.physmem.bytes_inst_read::total           70144                       # Number of instructions bytes read from this memory
system.physmem.bytes_written::writebacks       970240                       # Number of bytes written to this memory
system.physmem.bytes_written::total            970240                       # Number of bytes written to this memory
system.physmem.num_reads::switch_cpus00.inst           35                       # Number of read requests responded to by this memory
system.physmem.num_reads::switch_cpus00.data         2878                       # Number of read requests responded to by this memory
system.physmem.num_reads::switch_cpus01.inst           33                       # Number of read requests responded to by this memory
system.physmem.num_reads::switch_cpus01.data         2860                       # Number of read requests responded to by this memory
system.physmem.num_reads::switch_cpus02.inst           31                       # Number of read requests responded to by this memory
system.physmem.num_reads::switch_cpus02.data         2070                       # Number of read requests responded to by this memory
system.physmem.num_reads::switch_cpus03.inst           37                       # Number of read requests responded to by this memory
system.physmem.num_reads::switch_cpus03.data         1359                       # Number of read requests responded to by this memory
system.physmem.num_reads::switch_cpus04.inst           35                       # Number of read requests responded to by this memory
system.physmem.num_reads::switch_cpus04.data         1096                       # Number of read requests responded to by this memory
system.physmem.num_reads::switch_cpus05.inst           33                       # Number of read requests responded to by this memory
system.physmem.num_reads::switch_cpus05.data         1100                       # Number of read requests responded to by this memory
system.physmem.num_reads::switch_cpus06.inst           28                       # Number of read requests responded to by this memory
system.physmem.num_reads::switch_cpus06.data         2069                       # Number of read requests responded to by this memory
system.physmem.num_reads::switch_cpus07.inst           38                       # Number of read requests responded to by this memory
system.physmem.num_reads::switch_cpus07.data         1112                       # Number of read requests responded to by this memory
system.physmem.num_reads::switch_cpus08.inst           30                       # Number of read requests responded to by this memory
system.physmem.num_reads::switch_cpus08.data         2060                       # Number of read requests responded to by this memory
system.physmem.num_reads::switch_cpus09.inst           36                       # Number of read requests responded to by this memory
system.physmem.num_reads::switch_cpus09.data         2968                       # Number of read requests responded to by this memory
system.physmem.num_reads::switch_cpus10.inst           34                       # Number of read requests responded to by this memory
system.physmem.num_reads::switch_cpus10.data         1098                       # Number of read requests responded to by this memory
system.physmem.num_reads::switch_cpus11.inst           38                       # Number of read requests responded to by this memory
system.physmem.num_reads::switch_cpus11.data         1289                       # Number of read requests responded to by this memory
system.physmem.num_reads::switch_cpus12.inst           35                       # Number of read requests responded to by this memory
system.physmem.num_reads::switch_cpus12.data         2984                       # Number of read requests responded to by this memory
system.physmem.num_reads::switch_cpus13.inst           39                       # Number of read requests responded to by this memory
system.physmem.num_reads::switch_cpus13.data         1249                       # Number of read requests responded to by this memory
system.physmem.num_reads::switch_cpus14.inst           35                       # Number of read requests responded to by this memory
system.physmem.num_reads::switch_cpus14.data         1255                       # Number of read requests responded to by this memory
system.physmem.num_reads::switch_cpus15.inst           31                       # Number of read requests responded to by this memory
system.physmem.num_reads::switch_cpus15.data         2010                       # Number of read requests responded to by this memory
system.physmem.num_reads::total                 30005                       # Number of read requests responded to by this memory
system.physmem.num_writes::writebacks            7580                       # Number of write requests responded to by this memory
system.physmem.num_writes::functional               0                       # Number of write requests responded to by this memory
system.physmem.num_writes::interrupt                0                       # Number of write requests responded to by this memory
system.physmem.num_writes::switch_cpus00.dtb.walker            0                       # Number of write requests responded to by this memory
system.physmem.num_writes::switch_cpus00.itb.walker            0                       # Number of write requests responded to by this memory
system.physmem.num_writes::switch_cpus00.inst            0                       # Number of write requests responded to by this memory
system.physmem.num_writes::switch_cpus00.data            0                       # Number of write requests responded to by this memory
system.physmem.num_writes::switch_cpus01.dtb.walker            0                       # Number of write requests responded to by this memory
system.physmem.num_writes::switch_cpus01.itb.walker            0                       # Number of write requests responded to by this memory
system.physmem.num_writes::switch_cpus01.inst            0                       # Number of write requests responded to by this memory
system.physmem.num_writes::switch_cpus01.data            0                       # Number of write requests responded to by this memory
system.physmem.num_writes::switch_cpus02.dtb.walker            0                       # Number of write requests responded to by this memory
system.physmem.num_writes::switch_cpus02.itb.walker            0                       # Number of write requests responded to by this memory
system.physmem.num_writes::switch_cpus02.inst            0                       # Number of write requests responded to by this memory
system.physmem.num_writes::switch_cpus02.data            0                       # Number of write requests responded to by this memory
system.physmem.num_writes::switch_cpus03.dtb.walker            0                       # Number of write requests responded to by this memory
system.physmem.num_writes::switch_cpus03.itb.walker            0                       # Number of write requests responded to by this memory
system.physmem.num_writes::switch_cpus03.inst            0                       # Number of write requests responded to by this memory
system.physmem.num_writes::switch_cpus03.data            0                       # Number of write requests responded to by this memory
system.physmem.num_writes::switch_cpus04.dtb.walker            0                       # Number of write requests responded to by this memory
system.physmem.num_writes::switch_cpus04.itb.walker            0                       # Number of write requests responded to by this memory
system.physmem.num_writes::switch_cpus04.inst            0                       # Number of write requests responded to by this memory
system.physmem.num_writes::switch_cpus04.data            0                       # Number of write requests responded to by this memory
system.physmem.num_writes::switch_cpus05.dtb.walker            0                       # Number of write requests responded to by this memory
system.physmem.num_writes::switch_cpus05.itb.walker            0                       # Number of write requests responded to by this memory
system.physmem.num_writes::switch_cpus05.inst            0                       # Number of write requests responded to by this memory
system.physmem.num_writes::switch_cpus05.data            0                       # Number of write requests responded to by this memory
system.physmem.num_writes::switch_cpus06.dtb.walker            0                       # Number of write requests responded to by this memory
system.physmem.num_writes::switch_cpus06.itb.walker            0                       # Number of write requests responded to by this memory
system.physmem.num_writes::switch_cpus06.inst            0                       # Number of write requests responded to by this memory
system.physmem.num_writes::switch_cpus06.data            0                       # Number of write requests responded to by this memory
system.physmem.num_writes::switch_cpus07.dtb.walker            0                       # Number of write requests responded to by this memory
system.physmem.num_writes::switch_cpus07.itb.walker            0                       # Number of write requests responded to by this memory
system.physmem.num_writes::switch_cpus07.inst            0                       # Number of write requests responded to by this memory
system.physmem.num_writes::switch_cpus07.data            0                       # Number of write requests responded to by this memory
system.physmem.num_writes::switch_cpus08.dtb.walker            0                       # Number of write requests responded to by this memory
system.physmem.num_writes::switch_cpus08.itb.walker            0                       # Number of write requests responded to by this memory
system.physmem.num_writes::switch_cpus08.inst            0                       # Number of write requests responded to by this memory
system.physmem.num_writes::switch_cpus08.data            0                       # Number of write requests responded to by this memory
system.physmem.num_writes::switch_cpus09.dtb.walker            0                       # Number of write requests responded to by this memory
system.physmem.num_writes::switch_cpus09.itb.walker            0                       # Number of write requests responded to by this memory
system.physmem.num_writes::switch_cpus09.inst            0                       # Number of write requests responded to by this memory
system.physmem.num_writes::switch_cpus09.data            0                       # Number of write requests responded to by this memory
system.physmem.num_writes::switch_cpus10.dtb.walker            0                       # Number of write requests responded to by this memory
system.physmem.num_writes::switch_cpus10.itb.walker            0                       # Number of write requests responded to by this memory
system.physmem.num_writes::switch_cpus10.inst            0                       # Number of write requests responded to by this memory
system.physmem.num_writes::switch_cpus10.data            0                       # Number of write requests responded to by this memory
system.physmem.num_writes::switch_cpus11.dtb.walker            0                       # Number of write requests responded to by this memory
system.physmem.num_writes::switch_cpus11.itb.walker            0                       # Number of write requests responded to by this memory
system.physmem.num_writes::switch_cpus11.inst            0                       # Number of write requests responded to by this memory
system.physmem.num_writes::switch_cpus11.data            0                       # Number of write requests responded to by this memory
system.physmem.num_writes::switch_cpus12.dtb.walker            0                       # Number of write requests responded to by this memory
system.physmem.num_writes::switch_cpus12.itb.walker            0                       # Number of write requests responded to by this memory
system.physmem.num_writes::switch_cpus12.inst            0                       # Number of write requests responded to by this memory
system.physmem.num_writes::switch_cpus12.data            0                       # Number of write requests responded to by this memory
system.physmem.num_writes::switch_cpus13.dtb.walker            0                       # Number of write requests responded to by this memory
system.physmem.num_writes::switch_cpus13.itb.walker            0                       # Number of write requests responded to by this memory
system.physmem.num_writes::switch_cpus13.inst            0                       # Number of write requests responded to by this memory
system.physmem.num_writes::switch_cpus13.data            0                       # Number of write requests responded to by this memory
system.physmem.num_writes::switch_cpus14.dtb.walker            0                       # Number of write requests responded to by this memory
system.physmem.num_writes::switch_cpus14.itb.walker            0                       # Number of write requests responded to by this memory
system.physmem.num_writes::switch_cpus14.inst            0                       # Number of write requests responded to by this memory
system.physmem.num_writes::switch_cpus14.data            0                       # Number of write requests responded to by this memory
system.physmem.num_writes::switch_cpus15.dtb.walker            0                       # Number of write requests responded to by this memory
system.physmem.num_writes::switch_cpus15.itb.walker            0                       # Number of write requests responded to by this memory
system.physmem.num_writes::switch_cpus15.inst            0                       # Number of write requests responded to by this memory
system.physmem.num_writes::switch_cpus15.data            0                       # Number of write requests responded to by this memory
system.physmem.num_writes::cpu00.dtb.walker            0                       # Number of write requests responded to by this memory
system.physmem.num_writes::cpu00.itb.walker            0                       # Number of write requests responded to by this memory
system.physmem.num_writes::cpu00.inst               0                       # Number of write requests responded to by this memory
system.physmem.num_writes::cpu00.data               0                       # Number of write requests responded to by this memory
system.physmem.num_writes::cpu01.dtb.walker            0                       # Number of write requests responded to by this memory
system.physmem.num_writes::cpu01.itb.walker            0                       # Number of write requests responded to by this memory
system.physmem.num_writes::cpu01.inst               0                       # Number of write requests responded to by this memory
system.physmem.num_writes::cpu01.data               0                       # Number of write requests responded to by this memory
system.physmem.num_writes::cpu02.dtb.walker            0                       # Number of write requests responded to by this memory
system.physmem.num_writes::cpu02.itb.walker            0                       # Number of write requests responded to by this memory
system.physmem.num_writes::cpu02.inst               0                       # Number of write requests responded to by this memory
system.physmem.num_writes::cpu02.data               0                       # Number of write requests responded to by this memory
system.physmem.num_writes::cpu03.dtb.walker            0                       # Number of write requests responded to by this memory
system.physmem.num_writes::cpu03.itb.walker            0                       # Number of write requests responded to by this memory
system.physmem.num_writes::cpu03.inst               0                       # Number of write requests responded to by this memory
system.physmem.num_writes::cpu03.data               0                       # Number of write requests responded to by this memory
system.physmem.num_writes::cpu04.dtb.walker            0                       # Number of write requests responded to by this memory
system.physmem.num_writes::cpu04.itb.walker            0                       # Number of write requests responded to by this memory
system.physmem.num_writes::cpu04.inst               0                       # Number of write requests responded to by this memory
system.physmem.num_writes::cpu04.data               0                       # Number of write requests responded to by this memory
system.physmem.num_writes::cpu05.dtb.walker            0                       # Number of write requests responded to by this memory
system.physmem.num_writes::cpu05.itb.walker            0                       # Number of write requests responded to by this memory
system.physmem.num_writes::cpu05.inst               0                       # Number of write requests responded to by this memory
system.physmem.num_writes::cpu05.data               0                       # Number of write requests responded to by this memory
system.physmem.num_writes::cpu06.dtb.walker            0                       # Number of write requests responded to by this memory
system.physmem.num_writes::cpu06.itb.walker            0                       # Number of write requests responded to by this memory
system.physmem.num_writes::cpu06.inst               0                       # Number of write requests responded to by this memory
system.physmem.num_writes::cpu06.data               0                       # Number of write requests responded to by this memory
system.physmem.num_writes::cpu07.dtb.walker            0                       # Number of write requests responded to by this memory
system.physmem.num_writes::cpu07.itb.walker            0                       # Number of write requests responded to by this memory
system.physmem.num_writes::cpu07.inst               0                       # Number of write requests responded to by this memory
system.physmem.num_writes::cpu07.data               0                       # Number of write requests responded to by this memory
system.physmem.num_writes::cpu08.dtb.walker            0                       # Number of write requests responded to by this memory
system.physmem.num_writes::cpu08.itb.walker            0                       # Number of write requests responded to by this memory
system.physmem.num_writes::cpu08.inst               0                       # Number of write requests responded to by this memory
system.physmem.num_writes::cpu08.data               0                       # Number of write requests responded to by this memory
system.physmem.num_writes::cpu09.dtb.walker            0                       # Number of write requests responded to by this memory
system.physmem.num_writes::cpu09.itb.walker            0                       # Number of write requests responded to by this memory
system.physmem.num_writes::cpu09.inst               0                       # Number of write requests responded to by this memory
system.physmem.num_writes::cpu09.data               0                       # Number of write requests responded to by this memory
system.physmem.num_writes::cpu10.dtb.walker            0                       # Number of write requests responded to by this memory
system.physmem.num_writes::cpu10.itb.walker            0                       # Number of write requests responded to by this memory
system.physmem.num_writes::cpu10.inst               0                       # Number of write requests responded to by this memory
system.physmem.num_writes::cpu10.data               0                       # Number of write requests responded to by this memory
system.physmem.num_writes::cpu11.dtb.walker            0                       # Number of write requests responded to by this memory
system.physmem.num_writes::cpu11.itb.walker            0                       # Number of write requests responded to by this memory
system.physmem.num_writes::cpu11.inst               0                       # Number of write requests responded to by this memory
system.physmem.num_writes::cpu11.data               0                       # Number of write requests responded to by this memory
system.physmem.num_writes::cpu12.dtb.walker            0                       # Number of write requests responded to by this memory
system.physmem.num_writes::cpu12.itb.walker            0                       # Number of write requests responded to by this memory
system.physmem.num_writes::cpu12.inst               0                       # Number of write requests responded to by this memory
system.physmem.num_writes::cpu12.data               0                       # Number of write requests responded to by this memory
system.physmem.num_writes::cpu13.dtb.walker            0                       # Number of write requests responded to by this memory
system.physmem.num_writes::cpu13.itb.walker            0                       # Number of write requests responded to by this memory
system.physmem.num_writes::cpu13.inst               0                       # Number of write requests responded to by this memory
system.physmem.num_writes::cpu13.data               0                       # Number of write requests responded to by this memory
system.physmem.num_writes::cpu14.dtb.walker            0                       # Number of write requests responded to by this memory
system.physmem.num_writes::cpu14.itb.walker            0                       # Number of write requests responded to by this memory
system.physmem.num_writes::cpu14.inst               0                       # Number of write requests responded to by this memory
system.physmem.num_writes::cpu14.data               0                       # Number of write requests responded to by this memory
system.physmem.num_writes::cpu15.dtb.walker            0                       # Number of write requests responded to by this memory
system.physmem.num_writes::cpu15.itb.walker            0                       # Number of write requests responded to by this memory
system.physmem.num_writes::cpu15.inst               0                       # Number of write requests responded to by this memory
system.physmem.num_writes::cpu15.data               0                       # Number of write requests responded to by this memory
system.physmem.num_writes::total                 7580                       # Number of write requests responded to by this memory
system.physmem.bw_read::switch_cpus00.inst       419871                       # Total read bandwidth from this memory (bytes/s)
system.physmem.bw_read::switch_cpus00.data     34525370                       # Total read bandwidth from this memory (bytes/s)
system.physmem.bw_read::switch_cpus01.inst       395878                       # Total read bandwidth from this memory (bytes/s)
system.physmem.bw_read::switch_cpus01.data     34309437                       # Total read bandwidth from this memory (bytes/s)
system.physmem.bw_read::switch_cpus02.inst       371886                       # Total read bandwidth from this memory (bytes/s)
system.physmem.bw_read::switch_cpus02.data     24832354                       # Total read bandwidth from this memory (bytes/s)
system.physmem.bw_read::switch_cpus03.inst       443863                       # Total read bandwidth from this memory (bytes/s)
system.physmem.bw_read::switch_cpus03.data     16302981                       # Total read bandwidth from this memory (bytes/s)
system.physmem.bw_read::switch_cpus04.inst       419871                       # Total read bandwidth from this memory (bytes/s)
system.physmem.bw_read::switch_cpus04.data     13147952                       # Total read bandwidth from this memory (bytes/s)
system.physmem.bw_read::switch_cpus05.inst       395878                       # Total read bandwidth from this memory (bytes/s)
system.physmem.bw_read::switch_cpus05.data     13195937                       # Total read bandwidth from this memory (bytes/s)
system.physmem.bw_read::switch_cpus06.inst       335897                       # Total read bandwidth from this memory (bytes/s)
system.physmem.bw_read::switch_cpus06.data     24820358                       # Total read bandwidth from this memory (bytes/s)
system.physmem.bw_read::switch_cpus07.inst       455860                       # Total read bandwidth from this memory (bytes/s)
system.physmem.bw_read::switch_cpus07.data     13339893                       # Total read bandwidth from this memory (bytes/s)
system.physmem.bw_read::switch_cpus08.inst       359889                       # Total read bandwidth from this memory (bytes/s)
system.physmem.bw_read::switch_cpus08.data     24712391                       # Total read bandwidth from this memory (bytes/s)
system.physmem.bw_read::switch_cpus09.inst       431867                       # Total read bandwidth from this memory (bytes/s)
system.physmem.bw_read::switch_cpus09.data     35605038                       # Total read bandwidth from this memory (bytes/s)
system.physmem.bw_read::switch_cpus10.inst       407874                       # Total read bandwidth from this memory (bytes/s)
system.physmem.bw_read::switch_cpus10.data     13171945                       # Total read bandwidth from this memory (bytes/s)
system.physmem.bw_read::switch_cpus11.inst       455860                       # Total read bandwidth from this memory (bytes/s)
system.physmem.bw_read::switch_cpus11.data     15463239                       # Total read bandwidth from this memory (bytes/s)
system.physmem.bw_read::switch_cpus12.inst       419871                       # Total read bandwidth from this memory (bytes/s)
system.physmem.bw_read::switch_cpus12.data     35796979                       # Total read bandwidth from this memory (bytes/s)
system.physmem.bw_read::switch_cpus13.inst       467856                       # Total read bandwidth from this memory (bytes/s)
system.physmem.bw_read::switch_cpus13.data     14983387                       # Total read bandwidth from this memory (bytes/s)
system.physmem.bw_read::switch_cpus14.inst       419871                       # Total read bandwidth from this memory (bytes/s)
system.physmem.bw_read::switch_cpus14.data     15055365                       # Total read bandwidth from this memory (bytes/s)
system.physmem.bw_read::switch_cpus15.inst       371886                       # Total read bandwidth from this memory (bytes/s)
system.physmem.bw_read::switch_cpus15.data     24112576                       # Total read bandwidth from this memory (bytes/s)
system.physmem.bw_read::total               359949176                       # Total read bandwidth from this memory (bytes/s)
system.physmem.bw_inst_read::switch_cpus00.inst       419871                       # Instruction read bandwidth from this memory (bytes/s)
system.physmem.bw_inst_read::switch_cpus01.inst       395878                       # Instruction read bandwidth from this memory (bytes/s)
system.physmem.bw_inst_read::switch_cpus02.inst       371886                       # Instruction read bandwidth from this memory (bytes/s)
system.physmem.bw_inst_read::switch_cpus03.inst       443863                       # Instruction read bandwidth from this memory (bytes/s)
system.physmem.bw_inst_read::switch_cpus04.inst       419871                       # Instruction read bandwidth from this memory (bytes/s)
system.physmem.bw_inst_read::switch_cpus05.inst       395878                       # Instruction read bandwidth from this memory (bytes/s)
system.physmem.bw_inst_read::switch_cpus06.inst       335897                       # Instruction read bandwidth from this memory (bytes/s)
system.physmem.bw_inst_read::switch_cpus07.inst       455860                       # Instruction read bandwidth from this memory (bytes/s)
system.physmem.bw_inst_read::switch_cpus08.inst       359889                       # Instruction read bandwidth from this memory (bytes/s)
system.physmem.bw_inst_read::switch_cpus09.inst       431867                       # Instruction read bandwidth from this memory (bytes/s)
system.physmem.bw_inst_read::switch_cpus10.inst       407874                       # Instruction read bandwidth from this memory (bytes/s)
system.physmem.bw_inst_read::switch_cpus11.inst       455860                       # Instruction read bandwidth from this memory (bytes/s)
system.physmem.bw_inst_read::switch_cpus12.inst       419871                       # Instruction read bandwidth from this memory (bytes/s)
system.physmem.bw_inst_read::switch_cpus13.inst       467856                       # Instruction read bandwidth from this memory (bytes/s)
system.physmem.bw_inst_read::switch_cpus14.inst       419871                       # Instruction read bandwidth from this memory (bytes/s)
system.physmem.bw_inst_read::switch_cpus15.inst       371886                       # Instruction read bandwidth from this memory (bytes/s)
system.physmem.bw_inst_read::total            6573976                       # Instruction read bandwidth from this memory (bytes/s)
system.physmem.bw_write::writebacks          90932003                       # Write bandwidth from this memory (bytes/s)
system.physmem.bw_write::total               90932003                       # Write bandwidth from this memory (bytes/s)
system.physmem.bw_total::writebacks          90932003                       # Total bandwidth to/from this memory (bytes/s)
system.physmem.bw_total::switch_cpus00.inst       419871                       # Total bandwidth to/from this memory (bytes/s)
system.physmem.bw_total::switch_cpus00.data     34525370                       # Total bandwidth to/from this memory (bytes/s)
system.physmem.bw_total::switch_cpus01.inst       395878                       # Total bandwidth to/from this memory (bytes/s)
system.physmem.bw_total::switch_cpus01.data     34309437                       # Total bandwidth to/from this memory (bytes/s)
system.physmem.bw_total::switch_cpus02.inst       371886                       # Total bandwidth to/from this memory (bytes/s)
system.physmem.bw_total::switch_cpus02.data     24832354                       # Total bandwidth to/from this memory (bytes/s)
system.physmem.bw_total::switch_cpus03.inst       443863                       # Total bandwidth to/from this memory (bytes/s)
system.physmem.bw_total::switch_cpus03.data     16302981                       # Total bandwidth to/from this memory (bytes/s)
system.physmem.bw_total::switch_cpus04.inst       419871                       # Total bandwidth to/from this memory (bytes/s)
system.physmem.bw_total::switch_cpus04.data     13147952                       # Total bandwidth to/from this memory (bytes/s)
system.physmem.bw_total::switch_cpus05.inst       395878                       # Total bandwidth to/from this memory (bytes/s)
system.physmem.bw_total::switch_cpus05.data     13195937                       # Total bandwidth to/from this memory (bytes/s)
system.physmem.bw_total::switch_cpus06.inst       335897                       # Total bandwidth to/from this memory (bytes/s)
system.physmem.bw_total::switch_cpus06.data     24820358                       # Total bandwidth to/from this memory (bytes/s)
system.physmem.bw_total::switch_cpus07.inst       455860                       # Total bandwidth to/from this memory (bytes/s)
system.physmem.bw_total::switch_cpus07.data     13339893                       # Total bandwidth to/from this memory (bytes/s)
system.physmem.bw_total::switch_cpus08.inst       359889                       # Total bandwidth to/from this memory (bytes/s)
system.physmem.bw_total::switch_cpus08.data     24712391                       # Total bandwidth to/from this memory (bytes/s)
system.physmem.bw_total::switch_cpus09.inst       431867                       # Total bandwidth to/from this memory (bytes/s)
system.physmem.bw_total::switch_cpus09.data     35605038                       # Total bandwidth to/from this memory (bytes/s)
system.physmem.bw_total::switch_cpus10.inst       407874                       # Total bandwidth to/from this memory (bytes/s)
system.physmem.bw_total::switch_cpus10.data     13171945                       # Total bandwidth to/from this memory (bytes/s)
system.physmem.bw_total::switch_cpus11.inst       455860                       # Total bandwidth to/from this memory (bytes/s)
system.physmem.bw_total::switch_cpus11.data     15463239                       # Total bandwidth to/from this memory (bytes/s)
system.physmem.bw_total::switch_cpus12.inst       419871                       # Total bandwidth to/from this memory (bytes/s)
system.physmem.bw_total::switch_cpus12.data     35796979                       # Total bandwidth to/from this memory (bytes/s)
system.physmem.bw_total::switch_cpus13.inst       467856                       # Total bandwidth to/from this memory (bytes/s)
system.physmem.bw_total::switch_cpus13.data     14983387                       # Total bandwidth to/from this memory (bytes/s)
system.physmem.bw_total::switch_cpus14.inst       419871                       # Total bandwidth to/from this memory (bytes/s)
system.physmem.bw_total::switch_cpus14.data     15055365                       # Total bandwidth to/from this memory (bytes/s)
system.physmem.bw_total::switch_cpus15.inst       371886                       # Total bandwidth to/from this memory (bytes/s)
system.physmem.bw_total::switch_cpus15.data     24112576                       # Total bandwidth to/from this memory (bytes/s)
system.physmem.bw_total::total              450881179                       # Total bandwidth to/from this memory (bytes/s)
system.switch_cpus00.dtb.inst_hits                  0                       # ITB inst hits
system.switch_cpus00.dtb.inst_misses                0                       # ITB inst misses
system.switch_cpus00.dtb.read_hits                  0                       # DTB read hits
system.switch_cpus00.dtb.read_misses                0                       # DTB read misses
system.switch_cpus00.dtb.write_hits                 0                       # DTB write hits
system.switch_cpus00.dtb.write_misses               0                       # DTB write misses
system.switch_cpus00.dtb.flush_tlb                  0                       # Number of times complete TLB was flushed
system.switch_cpus00.dtb.flush_tlb_mva              0                       # Number of times TLB was flushed by MVA
system.switch_cpus00.dtb.flush_tlb_mva_asid            0                       # Number of times TLB was flushed by MVA & ASID
system.switch_cpus00.dtb.flush_tlb_asid             0                       # Number of times TLB was flushed by ASID
system.switch_cpus00.dtb.flush_entries              0                       # Number of entries that have been flushed from TLB
system.switch_cpus00.dtb.align_faults               0                       # Number of TLB faults due to alignment restrictions
system.switch_cpus00.dtb.prefetch_faults            0                       # Number of TLB faults due to prefetch
system.switch_cpus00.dtb.domain_faults              0                       # Number of TLB faults due to domain restrictions
system.switch_cpus00.dtb.perms_faults               0                       # Number of TLB faults due to permissions restrictions
system.switch_cpus00.dtb.read_accesses              0                       # DTB read accesses
system.switch_cpus00.dtb.write_accesses             0                       # DTB write accesses
system.switch_cpus00.dtb.inst_accesses              0                       # ITB inst accesses
system.switch_cpus00.dtb.hits                       0                       # DTB hits
system.switch_cpus00.dtb.misses                     0                       # DTB misses
system.switch_cpus00.dtb.accesses                   0                       # DTB accesses
system.switch_cpus00.itb.inst_hits                  0                       # ITB inst hits
system.switch_cpus00.itb.inst_misses                0                       # ITB inst misses
system.switch_cpus00.itb.read_hits                  0                       # DTB read hits
system.switch_cpus00.itb.read_misses                0                       # DTB read misses
system.switch_cpus00.itb.write_hits                 0                       # DTB write hits
system.switch_cpus00.itb.write_misses               0                       # DTB write misses
system.switch_cpus00.itb.flush_tlb                  0                       # Number of times complete TLB was flushed
system.switch_cpus00.itb.flush_tlb_mva              0                       # Number of times TLB was flushed by MVA
system.switch_cpus00.itb.flush_tlb_mva_asid            0                       # Number of times TLB was flushed by MVA & ASID
system.switch_cpus00.itb.flush_tlb_asid             0                       # Number of times TLB was flushed by ASID
system.switch_cpus00.itb.flush_entries              0                       # Number of entries that have been flushed from TLB
system.switch_cpus00.itb.align_faults               0                       # Number of TLB faults due to alignment restrictions
system.switch_cpus00.itb.prefetch_faults            0                       # Number of TLB faults due to prefetch
system.switch_cpus00.itb.domain_faults              0                       # Number of TLB faults due to domain restrictions
system.switch_cpus00.itb.perms_faults               0                       # Number of TLB faults due to permissions restrictions
system.switch_cpus00.itb.read_accesses              0                       # DTB read accesses
system.switch_cpus00.itb.write_accesses             0                       # DTB write accesses
system.switch_cpus00.itb.inst_accesses              0                       # ITB inst accesses
system.switch_cpus00.itb.hits                       0                       # DTB hits
system.switch_cpus00.itb.misses                     0                       # DTB misses
system.switch_cpus00.itb.accesses                   0                       # DTB accesses
system.cpu00.workload.num_syscalls                  5                       # Number of system calls
system.switch_cpus00.numCycles               25587413                       # number of cpu cycles simulated
system.switch_cpus00.numWorkItemsStarted            0                       # number of work items this cpu started
system.switch_cpus00.numWorkItemsCompleted            0                       # number of work items this cpu completed
system.switch_cpus00.BPredUnit.lookups        2078604                       # Number of BP lookups
system.switch_cpus00.BPredUnit.condPredicted      1699802                       # Number of conditional branches predicted
system.switch_cpus00.BPredUnit.condIncorrect       204790                       # Number of conditional branches incorrect
system.switch_cpus00.BPredUnit.BTBLookups       851682                       # Number of BTB lookups
system.switch_cpus00.BPredUnit.BTBHits         817080                       # Number of BTB hits
system.switch_cpus00.BPredUnit.BTBCorrect            0                       # Number of correct BTB predictions (this stat may not work properly.
system.switch_cpus00.BPredUnit.usedRAS         213377                       # Number of times the RAS was used to get a target.
system.switch_cpus00.BPredUnit.RASInCorrect         9149                       # Number of incorrect RAS predictions.
system.switch_cpus00.fetch.icacheStallCycles     20167430                       # Number of cycles fetch is stalled on an Icache miss
system.switch_cpus00.fetch.Insts             11801353                       # Number of instructions fetch has processed
system.switch_cpus00.fetch.Branches           2078604                       # Number of branches that fetch encountered
system.switch_cpus00.fetch.predictedBranches      1030457                       # Number of branches that fetch has predicted taken
system.switch_cpus00.fetch.Cycles             2470963                       # Number of cycles fetch has run and was not squashing or blocked
system.switch_cpus00.fetch.SquashCycles        596995                       # Number of cycles fetch has spent squashing
system.switch_cpus00.fetch.BlockedCycles       350559                       # Number of cycles fetch has spent blocked
system.switch_cpus00.fetch.CacheLines         1241951                       # Number of cache lines fetched
system.switch_cpus00.fetch.IcacheSquashes       206214                       # Number of outstanding Icache misses that were squashed
system.switch_cpus00.fetch.rateDist::samples     23376667                       # Number of instructions fetched each cycle (Total)
system.switch_cpus00.fetch.rateDist::mean     0.616796                       # Number of instructions fetched each cycle (Total)
system.switch_cpus00.fetch.rateDist::stdev     1.968927                       # Number of instructions fetched each cycle (Total)
system.switch_cpus00.fetch.rateDist::underflows            0      0.00%      0.00% # Number of instructions fetched each cycle (Total)
system.switch_cpus00.fetch.rateDist::0       20905704     89.43%     89.43% # Number of instructions fetched each cycle (Total)
system.switch_cpus00.fetch.rateDist::1         133629      0.57%     90.00% # Number of instructions fetched each cycle (Total)
system.switch_cpus00.fetch.rateDist::2         210937      0.90%     90.90% # Number of instructions fetched each cycle (Total)
system.switch_cpus00.fetch.rateDist::3         336917      1.44%     92.35% # Number of instructions fetched each cycle (Total)
system.switch_cpus00.fetch.rateDist::4         139074      0.59%     92.94% # Number of instructions fetched each cycle (Total)
system.switch_cpus00.fetch.rateDist::5         155131      0.66%     93.60% # Number of instructions fetched each cycle (Total)
system.switch_cpus00.fetch.rateDist::6         166515      0.71%     94.32% # Number of instructions fetched each cycle (Total)
system.switch_cpus00.fetch.rateDist::7         108750      0.47%     94.78% # Number of instructions fetched each cycle (Total)
system.switch_cpus00.fetch.rateDist::8        1220010      5.22%    100.00% # Number of instructions fetched each cycle (Total)
system.switch_cpus00.fetch.rateDist::overflows            0      0.00%    100.00% # Number of instructions fetched each cycle (Total)
system.switch_cpus00.fetch.rateDist::min_value            0                       # Number of instructions fetched each cycle (Total)
system.switch_cpus00.fetch.rateDist::max_value            8                       # Number of instructions fetched each cycle (Total)
system.switch_cpus00.fetch.rateDist::total     23376667                       # Number of instructions fetched each cycle (Total)
system.switch_cpus00.fetch.branchRate        0.081235                       # Number of branch fetches per cycle
system.switch_cpus00.fetch.rate              0.461217                       # Number of inst fetches per cycle
system.switch_cpus00.decode.IdleCycles       19980141                       # Number of cycles decode is idle
system.switch_cpus00.decode.BlockedCycles       539727                       # Number of cycles decode is blocked
system.switch_cpus00.decode.RunCycles         2462947                       # Number of cycles decode is running
system.switch_cpus00.decode.UnblockCycles         6412                       # Number of cycles decode is unblocking
system.switch_cpus00.decode.SquashCycles       387437                       # Number of cycles decode is squashing
system.switch_cpus00.decode.BranchResolved       340663                       # Number of times decode resolved a branch
system.switch_cpus00.decode.BranchMispred          279                       # Number of times decode detected a branch misprediction
system.switch_cpus00.decode.DecodedInsts     14406770                       # Number of instructions handled by decode
system.switch_cpus00.decode.SquashedInsts         1654                       # Number of squashed instructions handled by decode
system.switch_cpus00.rename.SquashCycles       387437                       # Number of cycles rename is squashing
system.switch_cpus00.rename.IdleCycles       20011498                       # Number of cycles rename is idle
system.switch_cpus00.rename.BlockCycles        172865                       # Number of cycles rename is blocking
system.switch_cpus00.rename.serializeStallCycles       276662                       # count of cycles rename stalled for serializing inst
system.switch_cpus00.rename.RunCycles         2438568                       # Number of cycles rename is running
system.switch_cpus00.rename.UnblockCycles        89632                       # Number of cycles rename is unblocking
system.switch_cpus00.rename.RenamedInsts     14397487                       # Number of instructions processed by rename
system.switch_cpus00.rename.ROBFullEvents         2810                       # Number of times rename has blocked due to ROB full
system.switch_cpus00.rename.IQFullEvents        25005                       # Number of times rename has blocked due to IQ full
system.switch_cpus00.rename.LSQFullEvents        33953                       # Number of times rename has blocked due to LSQ full
system.switch_cpus00.rename.FullRegisterEvents         4156                       # Number of times there has been no free registers
system.switch_cpus00.rename.RenamedOperands     19987946                       # Number of destination operands rename has renamed
system.switch_cpus00.rename.RenameLookups     66972071                       # Number of register rename lookups that rename has made
system.switch_cpus00.rename.int_rename_lookups     66972071                       # Number of integer rename lookups
system.switch_cpus00.rename.CommittedMaps     17023993                       # Number of HB maps that are committed
system.switch_cpus00.rename.UndoneMaps        2963931                       # Number of HB maps that are undone due to squashing
system.switch_cpus00.rename.serializingInsts         3666                       # count of serializing insts renamed
system.switch_cpus00.rename.tempSerializingInsts         2019                       # count of temporary serializing insts renamed
system.switch_cpus00.rename.skidInsts          271706                       # count of insts added to the skid buffer
system.switch_cpus00.memDep0.insertedLoads      1372513                       # Number of loads inserted to the mem dependence unit.
system.switch_cpus00.memDep0.insertedStores       737662                       # Number of stores inserted to the mem dependence unit.
system.switch_cpus00.memDep0.conflictingLoads        22237                       # Number of conflicting loads.
system.switch_cpus00.memDep0.conflictingStores       169060                       # Number of conflicting stores.
system.switch_cpus00.iq.iqInstsAdded         14377213                       # Number of instructions added to the IQ (excludes non-spec)
system.switch_cpus00.iq.iqNonSpecInstsAdded         3675                       # Number of non-speculative instructions added to the IQ
system.switch_cpus00.iq.iqInstsIssued        13592665                       # Number of instructions issued
system.switch_cpus00.iq.iqSquashedInstsIssued        17344                       # Number of squashed instructions issued
system.switch_cpus00.iq.iqSquashedInstsExamined      1850622                       # Number of squashed instructions iterated over during squash; mainly for profiling
system.switch_cpus00.iq.iqSquashedOperandsExamined      4137879                       # Number of squashed operands that are examined and possibly removed from graph
system.switch_cpus00.iq.iqSquashedNonSpecRemoved          356                       # Number of squashed non-spec instructions that were removed
system.switch_cpus00.iq.issued_per_cycle::samples     23376667                       # Number of insts issued each cycle
system.switch_cpus00.iq.issued_per_cycle::mean     0.581463                       # Number of insts issued each cycle
system.switch_cpus00.iq.issued_per_cycle::stdev     1.273493                       # Number of insts issued each cycle
system.switch_cpus00.iq.issued_per_cycle::underflows            0      0.00%      0.00% # Number of insts issued each cycle
system.switch_cpus00.iq.issued_per_cycle::0     17647192     75.49%     75.49% # Number of insts issued each cycle
system.switch_cpus00.iq.issued_per_cycle::1      2298282      9.83%     85.32% # Number of insts issued each cycle
system.switch_cpus00.iq.issued_per_cycle::2      1256819      5.38%     90.70% # Number of insts issued each cycle
system.switch_cpus00.iq.issued_per_cycle::3       858735      3.67%     94.37% # Number of insts issued each cycle
system.switch_cpus00.iq.issued_per_cycle::4       802647      3.43%     97.81% # Number of insts issued each cycle
system.switch_cpus00.iq.issued_per_cycle::5       229325      0.98%     98.79% # Number of insts issued each cycle
system.switch_cpus00.iq.issued_per_cycle::6       180676      0.77%     99.56% # Number of insts issued each cycle
system.switch_cpus00.iq.issued_per_cycle::7        60657      0.26%     99.82% # Number of insts issued each cycle
system.switch_cpus00.iq.issued_per_cycle::8        42334      0.18%    100.00% # Number of insts issued each cycle
system.switch_cpus00.iq.issued_per_cycle::overflows            0      0.00%    100.00% # Number of insts issued each cycle
system.switch_cpus00.iq.issued_per_cycle::min_value            0                       # Number of insts issued each cycle
system.switch_cpus00.iq.issued_per_cycle::max_value            8                       # Number of insts issued each cycle
system.switch_cpus00.iq.issued_per_cycle::total     23376667                       # Number of insts issued each cycle
system.switch_cpus00.iq.fu_full::No_OpClass            0      0.00%      0.00% # attempts to use FU when none available
system.switch_cpus00.iq.fu_full::IntAlu          3219     12.56%     12.56% # attempts to use FU when none available
system.switch_cpus00.iq.fu_full::IntMult            0      0.00%     12.56% # attempts to use FU when none available
system.switch_cpus00.iq.fu_full::IntDiv             0      0.00%     12.56% # attempts to use FU when none available
system.switch_cpus00.iq.fu_full::FloatAdd            0      0.00%     12.56% # attempts to use FU when none available
system.switch_cpus00.iq.fu_full::FloatCmp            0      0.00%     12.56% # attempts to use FU when none available
system.switch_cpus00.iq.fu_full::FloatCvt            0      0.00%     12.56% # attempts to use FU when none available
system.switch_cpus00.iq.fu_full::FloatMult            0      0.00%     12.56% # attempts to use FU when none available
system.switch_cpus00.iq.fu_full::FloatDiv            0      0.00%     12.56% # attempts to use FU when none available
system.switch_cpus00.iq.fu_full::FloatSqrt            0      0.00%     12.56% # attempts to use FU when none available
system.switch_cpus00.iq.fu_full::SimdAdd            0      0.00%     12.56% # attempts to use FU when none available
system.switch_cpus00.iq.fu_full::SimdAddAcc            0      0.00%     12.56% # attempts to use FU when none available
system.switch_cpus00.iq.fu_full::SimdAlu            0      0.00%     12.56% # attempts to use FU when none available
system.switch_cpus00.iq.fu_full::SimdCmp            0      0.00%     12.56% # attempts to use FU when none available
system.switch_cpus00.iq.fu_full::SimdCvt            0      0.00%     12.56% # attempts to use FU when none available
system.switch_cpus00.iq.fu_full::SimdMisc            0      0.00%     12.56% # attempts to use FU when none available
system.switch_cpus00.iq.fu_full::SimdMult            0      0.00%     12.56% # attempts to use FU when none available
system.switch_cpus00.iq.fu_full::SimdMultAcc            0      0.00%     12.56% # attempts to use FU when none available
system.switch_cpus00.iq.fu_full::SimdShift            0      0.00%     12.56% # attempts to use FU when none available
system.switch_cpus00.iq.fu_full::SimdShiftAcc            0      0.00%     12.56% # attempts to use FU when none available
system.switch_cpus00.iq.fu_full::SimdSqrt            0      0.00%     12.56% # attempts to use FU when none available
system.switch_cpus00.iq.fu_full::SimdFloatAdd            0      0.00%     12.56% # attempts to use FU when none available
system.switch_cpus00.iq.fu_full::SimdFloatAlu            0      0.00%     12.56% # attempts to use FU when none available
system.switch_cpus00.iq.fu_full::SimdFloatCmp            0      0.00%     12.56% # attempts to use FU when none available
system.switch_cpus00.iq.fu_full::SimdFloatCvt            0      0.00%     12.56% # attempts to use FU when none available
system.switch_cpus00.iq.fu_full::SimdFloatDiv            0      0.00%     12.56% # attempts to use FU when none available
system.switch_cpus00.iq.fu_full::SimdFloatMisc            0      0.00%     12.56% # attempts to use FU when none available
system.switch_cpus00.iq.fu_full::SimdFloatMult            0      0.00%     12.56% # attempts to use FU when none available
system.switch_cpus00.iq.fu_full::SimdFloatMultAcc            0      0.00%     12.56% # attempts to use FU when none available
system.switch_cpus00.iq.fu_full::SimdFloatSqrt            0      0.00%     12.56% # attempts to use FU when none available
system.switch_cpus00.iq.fu_full::MemRead         9915     38.69%     51.25% # attempts to use FU when none available
system.switch_cpus00.iq.fu_full::MemWrite        12493     48.75%    100.00% # attempts to use FU when none available
system.switch_cpus00.iq.fu_full::IprAccess            0      0.00%    100.00% # attempts to use FU when none available
system.switch_cpus00.iq.fu_full::InstPrefetch            0      0.00%    100.00% # attempts to use FU when none available
system.switch_cpus00.iq.FU_type_0::No_OpClass            0      0.00%      0.00% # Type of FU issued
system.switch_cpus00.iq.FU_type_0::IntAlu     11385601     83.76%     83.76% # Type of FU issued
system.switch_cpus00.iq.FU_type_0::IntMult       215157      1.58%     85.35% # Type of FU issued
system.switch_cpus00.iq.FU_type_0::IntDiv            0      0.00%     85.35% # Type of FU issued
system.switch_cpus00.iq.FU_type_0::FloatAdd            0      0.00%     85.35% # Type of FU issued
system.switch_cpus00.iq.FU_type_0::FloatCmp            0      0.00%     85.35% # Type of FU issued
system.switch_cpus00.iq.FU_type_0::FloatCvt            0      0.00%     85.35% # Type of FU issued
system.switch_cpus00.iq.FU_type_0::FloatMult            0      0.00%     85.35% # Type of FU issued
system.switch_cpus00.iq.FU_type_0::FloatDiv            0      0.00%     85.35% # Type of FU issued
system.switch_cpus00.iq.FU_type_0::FloatSqrt            0      0.00%     85.35% # Type of FU issued
system.switch_cpus00.iq.FU_type_0::SimdAdd            0      0.00%     85.35% # Type of FU issued
system.switch_cpus00.iq.FU_type_0::SimdAddAcc            0      0.00%     85.35% # Type of FU issued
system.switch_cpus00.iq.FU_type_0::SimdAlu            0      0.00%     85.35% # Type of FU issued
system.switch_cpus00.iq.FU_type_0::SimdCmp            0      0.00%     85.35% # Type of FU issued
system.switch_cpus00.iq.FU_type_0::SimdCvt            0      0.00%     85.35% # Type of FU issued
system.switch_cpus00.iq.FU_type_0::SimdMisc            0      0.00%     85.35% # Type of FU issued
system.switch_cpus00.iq.FU_type_0::SimdMult            0      0.00%     85.35% # Type of FU issued
system.switch_cpus00.iq.FU_type_0::SimdMultAcc            0      0.00%     85.35% # Type of FU issued
system.switch_cpus00.iq.FU_type_0::SimdShift            0      0.00%     85.35% # Type of FU issued
system.switch_cpus00.iq.FU_type_0::SimdShiftAcc            0      0.00%     85.35% # Type of FU issued
system.switch_cpus00.iq.FU_type_0::SimdSqrt            0      0.00%     85.35% # Type of FU issued
system.switch_cpus00.iq.FU_type_0::SimdFloatAdd            0      0.00%     85.35% # Type of FU issued
system.switch_cpus00.iq.FU_type_0::SimdFloatAlu            0      0.00%     85.35% # Type of FU issued
system.switch_cpus00.iq.FU_type_0::SimdFloatCmp            0      0.00%     85.35% # Type of FU issued
system.switch_cpus00.iq.FU_type_0::SimdFloatCvt            0      0.00%     85.35% # Type of FU issued
system.switch_cpus00.iq.FU_type_0::SimdFloatDiv            0      0.00%     85.35% # Type of FU issued
system.switch_cpus00.iq.FU_type_0::SimdFloatMisc         1646      0.01%     85.36% # Type of FU issued
system.switch_cpus00.iq.FU_type_0::SimdFloatMult            0      0.00%     85.36% # Type of FU issued
system.switch_cpus00.iq.FU_type_0::SimdFloatMultAcc            0      0.00%     85.36% # Type of FU issued
system.switch_cpus00.iq.FU_type_0::SimdFloatSqrt            0      0.00%     85.36% # Type of FU issued
system.switch_cpus00.iq.FU_type_0::MemRead      1257142      9.25%     94.61% # Type of FU issued
system.switch_cpus00.iq.FU_type_0::MemWrite       733119      5.39%    100.00% # Type of FU issued
system.switch_cpus00.iq.FU_type_0::IprAccess            0      0.00%    100.00% # Type of FU issued
system.switch_cpus00.iq.FU_type_0::InstPrefetch            0      0.00%    100.00% # Type of FU issued
system.switch_cpus00.iq.FU_type_0::total     13592665                       # Type of FU issued
system.switch_cpus00.iq.rate                 0.531225                       # Inst issue rate
system.switch_cpus00.iq.fu_busy_cnt             25627                       # FU busy when requested
system.switch_cpus00.iq.fu_busy_rate         0.001885                       # FU busy rate (busy events/executed inst)
system.switch_cpus00.iq.int_inst_queue_reads     50604967                       # Number of integer instruction queue reads
system.switch_cpus00.iq.int_inst_queue_writes     16231665                       # Number of integer instruction queue writes
system.switch_cpus00.iq.int_inst_queue_wakeup_accesses     13370667                       # Number of integer instruction queue wakeup accesses
system.switch_cpus00.iq.fp_inst_queue_reads            0                       # Number of floating instruction queue reads
system.switch_cpus00.iq.fp_inst_queue_writes            0                       # Number of floating instruction queue writes
system.switch_cpus00.iq.fp_inst_queue_wakeup_accesses            0                       # Number of floating instruction queue wakeup accesses
system.switch_cpus00.iq.int_alu_accesses     13618292                       # Number of integer alu accesses
system.switch_cpus00.iq.fp_alu_accesses             0                       # Number of floating point alu accesses
system.switch_cpus00.iew.lsq.thread0.forwLoads        40915                       # Number of loads that had data forwarded from stores
system.switch_cpus00.iew.lsq.thread0.invAddrLoads            0                       # Number of loads ignored due to an invalid address
system.switch_cpus00.iew.lsq.thread0.squashedLoads       248954                       # Number of loads squashed
system.switch_cpus00.iew.lsq.thread0.ignoredResponses           35                       # Number of memory responses ignored because the instruction is squashed
system.switch_cpus00.iew.lsq.thread0.memOrderViolation          160                       # Number of memory ordering violations
system.switch_cpus00.iew.lsq.thread0.squashedStores        23445                       # Number of stores squashed
system.switch_cpus00.iew.lsq.thread0.invAddrSwpfs            0                       # Number of software prefetches ignored due to an invalid address
system.switch_cpus00.iew.lsq.thread0.blockedLoads            0                       # Number of blocked loads due to partial load-store forwarding
system.switch_cpus00.iew.lsq.thread0.rescheduledLoads          881                       # Number of loads that were rescheduled
system.switch_cpus00.iew.lsq.thread0.cacheBlocked            0                       # Number of times an access to memory failed due to the cache being blocked
system.switch_cpus00.iew.iewIdleCycles              0                       # Number of cycles IEW is idle
system.switch_cpus00.iew.iewSquashCycles       387437                       # Number of cycles IEW is squashing
system.switch_cpus00.iew.iewBlockCycles        117407                       # Number of cycles IEW is blocking
system.switch_cpus00.iew.iewUnblockCycles        12544                       # Number of cycles IEW is unblocking
system.switch_cpus00.iew.iewDispatchedInsts     14380906                       # Number of instructions dispatched to IQ
system.switch_cpus00.iew.iewDispSquashedInsts         1005                       # Number of squashed instructions skipped by dispatch
system.switch_cpus00.iew.iewDispLoadInsts      1372513                       # Number of dispatched load instructions
system.switch_cpus00.iew.iewDispStoreInsts       737662                       # Number of dispatched store instructions
system.switch_cpus00.iew.iewDispNonSpecInsts         2017                       # Number of dispatched non-speculative instructions
system.switch_cpus00.iew.iewIQFullEvents         9347                       # Number of times the IQ has become full, causing a stall
system.switch_cpus00.iew.iewLSQFullEvents            1                       # Number of times the LSQ has become full, causing a stall
system.switch_cpus00.iew.memOrderViolationEvents          160                       # Number of memory order violations
system.switch_cpus00.iew.predictedTakenIncorrect       119111                       # Number of branches that were predicted taken incorrectly
system.switch_cpus00.iew.predictedNotTakenIncorrect       117443                       # Number of branches that were predicted not taken incorrectly
system.switch_cpus00.iew.branchMispredicts       236554                       # Number of branch mispredicts detected at execute
system.switch_cpus00.iew.iewExecutedInsts     13396905                       # Number of executed instructions
system.switch_cpus00.iew.iewExecLoadInsts      1181970                       # Number of load instructions executed
system.switch_cpus00.iew.iewExecSquashedInsts       195759                       # Number of squashed instructions skipped in execute
system.switch_cpus00.iew.exec_swp                   0                       # number of swp insts executed
system.switch_cpus00.iew.exec_nop                  18                       # number of nop insts executed
system.switch_cpus00.iew.exec_refs            1914712                       # number of memory reference insts executed
system.switch_cpus00.iew.exec_branches        1884391                       # Number of branches executed
system.switch_cpus00.iew.exec_stores           732742                       # Number of stores executed
system.switch_cpus00.iew.exec_rate           0.523574                       # Inst execution rate
system.switch_cpus00.iew.wb_sent             13370906                       # cumulative count of insts sent to commit
system.switch_cpus00.iew.wb_count            13370667                       # cumulative count of insts written-back
system.switch_cpus00.iew.wb_producers         7817786                       # num instructions producing a value
system.switch_cpus00.iew.wb_consumers        20424136                       # num instructions consuming a value
system.switch_cpus00.iew.wb_penalized               0                       # number of instrctions required to write to 'other' IQ
system.switch_cpus00.iew.wb_rate             0.522549                       # insts written-back per cycle
system.switch_cpus00.iew.wb_fanout           0.382772                       # average fanout of values written-back
system.switch_cpus00.iew.wb_penalized_rate            0                       # fraction of instructions written-back that wrote to 'other' IQ
system.switch_cpus00.commit.commitCommittedInsts     10000000                       # The number of committed instructions
system.switch_cpus00.commit.commitCommittedOps     12257191                       # The number of committed instructions
system.switch_cpus00.commit.commitSquashedInsts      2123742                       # The number of squashed insts skipped by commit
system.switch_cpus00.commit.commitNonSpecStalls         3319                       # The number of times commit has been forced to stall to communicate backwards
system.switch_cpus00.commit.branchMispredicts       208888                       # The number of times a branch was mispredicted
system.switch_cpus00.commit.committed_per_cycle::samples     22989230                       # Number of insts commited each cycle
system.switch_cpus00.commit.committed_per_cycle::mean     0.533171                       # Number of insts commited each cycle
system.switch_cpus00.commit.committed_per_cycle::stdev     1.386315                       # Number of insts commited each cycle
system.switch_cpus00.commit.committed_per_cycle::underflows            0      0.00%      0.00% # Number of insts commited each cycle
system.switch_cpus00.commit.committed_per_cycle::0     18010255     78.34%     78.34% # Number of insts commited each cycle
system.switch_cpus00.commit.committed_per_cycle::1      2412380     10.49%     88.84% # Number of insts commited each cycle
system.switch_cpus00.commit.committed_per_cycle::2       939710      4.09%     92.92% # Number of insts commited each cycle
system.switch_cpus00.commit.committed_per_cycle::3       505533      2.20%     95.12% # Number of insts commited each cycle
system.switch_cpus00.commit.committed_per_cycle::4       377615      1.64%     96.76% # Number of insts commited each cycle
system.switch_cpus00.commit.committed_per_cycle::5       211205      0.92%     97.68% # Number of insts commited each cycle
system.switch_cpus00.commit.committed_per_cycle::6       130824      0.57%     98.25% # Number of insts commited each cycle
system.switch_cpus00.commit.committed_per_cycle::7       116301      0.51%     98.76% # Number of insts commited each cycle
system.switch_cpus00.commit.committed_per_cycle::8       285407      1.24%    100.00% # Number of insts commited each cycle
system.switch_cpus00.commit.committed_per_cycle::overflows            0      0.00%    100.00% # Number of insts commited each cycle
system.switch_cpus00.commit.committed_per_cycle::min_value            0                       # Number of insts commited each cycle
system.switch_cpus00.commit.committed_per_cycle::max_value            8                       # Number of insts commited each cycle
system.switch_cpus00.commit.committed_per_cycle::total     22989230                       # Number of insts commited each cycle
system.switch_cpus00.commit.committedInsts     10000000                       # Number of instructions committed
system.switch_cpus00.commit.committedOps     12257191                       # Number of ops (including micro ops) committed
system.switch_cpus00.commit.swp_count               0                       # Number of s/w prefetches committed
system.switch_cpus00.commit.refs              1837776                       # Number of memory references committed
system.switch_cpus00.commit.loads             1123559                       # Number of loads committed
system.switch_cpus00.commit.membars              1656                       # Number of memory barriers committed
system.switch_cpus00.commit.branches          1759628                       # Number of branches committed
system.switch_cpus00.commit.fp_insts                0                       # Number of committed floating point instructions.
system.switch_cpus00.commit.int_insts        11044453                       # Number of committed integer instructions.
system.switch_cpus00.commit.function_calls       248995                       # Number of function calls committed.
system.switch_cpus00.commit.bw_lim_events       285407                       # number cycles where commit BW limit reached
system.switch_cpus00.commit.bw_limited              0                       # number of insts not committed due to BW limits
system.switch_cpus00.rob.rob_reads           37084691                       # The number of ROB reads
system.switch_cpus00.rob.rob_writes          29149353                       # The number of ROB writes
system.switch_cpus00.timesIdled                327535                       # Number of times that the entire CPU went into an idle state and unscheduled itself
system.switch_cpus00.idleCycles               2210746                       # Total number of cycles that the CPU has spent unscheduled due to idling
system.switch_cpus00.committedInsts          10000000                       # Number of Instructions Simulated
system.switch_cpus00.committedOps            12257191                       # Number of Ops (including micro ops) Simulated
system.switch_cpus00.committedInsts_total     10000000                       # Number of Instructions Simulated
system.switch_cpus00.cpi                     2.558741                       # CPI: Cycles Per Instruction
system.switch_cpus00.cpi_total               2.558741                       # CPI: Total CPI of All Threads
system.switch_cpus00.ipc                     0.390817                       # IPC: Instructions Per Cycle
system.switch_cpus00.ipc_total               0.390817                       # IPC: Total IPC of All Threads
system.switch_cpus00.int_regfile_reads       60410797                       # number of integer regfile reads
system.switch_cpus00.int_regfile_writes      18534490                       # number of integer regfile writes
system.switch_cpus00.misc_regfile_reads      13438639                       # number of misc regfile reads
system.switch_cpus00.misc_regfile_writes         3316                       # number of misc regfile writes
system.switch_cpus01.dtb.inst_hits                  0                       # ITB inst hits
system.switch_cpus01.dtb.inst_misses                0                       # ITB inst misses
system.switch_cpus01.dtb.read_hits                  0                       # DTB read hits
system.switch_cpus01.dtb.read_misses                0                       # DTB read misses
system.switch_cpus01.dtb.write_hits                 0                       # DTB write hits
system.switch_cpus01.dtb.write_misses               0                       # DTB write misses
system.switch_cpus01.dtb.flush_tlb                  0                       # Number of times complete TLB was flushed
system.switch_cpus01.dtb.flush_tlb_mva              0                       # Number of times TLB was flushed by MVA
system.switch_cpus01.dtb.flush_tlb_mva_asid            0                       # Number of times TLB was flushed by MVA & ASID
system.switch_cpus01.dtb.flush_tlb_asid             0                       # Number of times TLB was flushed by ASID
system.switch_cpus01.dtb.flush_entries              0                       # Number of entries that have been flushed from TLB
system.switch_cpus01.dtb.align_faults               0                       # Number of TLB faults due to alignment restrictions
system.switch_cpus01.dtb.prefetch_faults            0                       # Number of TLB faults due to prefetch
system.switch_cpus01.dtb.domain_faults              0                       # Number of TLB faults due to domain restrictions
system.switch_cpus01.dtb.perms_faults               0                       # Number of TLB faults due to permissions restrictions
system.switch_cpus01.dtb.read_accesses              0                       # DTB read accesses
system.switch_cpus01.dtb.write_accesses             0                       # DTB write accesses
system.switch_cpus01.dtb.inst_accesses              0                       # ITB inst accesses
system.switch_cpus01.dtb.hits                       0                       # DTB hits
system.switch_cpus01.dtb.misses                     0                       # DTB misses
system.switch_cpus01.dtb.accesses                   0                       # DTB accesses
[...]
system.cpu15.icache.demand_avg_miss_latency::total 154102.166667                       # average overall miss latency
system.cpu15.icache.overall_avg_miss_latency::switch_cpus15.inst 154102.166667                       # average overall miss latency
system.cpu15.icache.overall_avg_miss_latency::total 154102.166667                       # average overall miss latency
system.cpu15.icache.blocked_cycles::no_mshrs            0                       # number of cycles access was blocked
system.cpu15.icache.blocked_cycles::no_targets            0                       # number of cycles access was blocked
system.cpu15.icache.blocked::no_mshrs               0                       # number of cycles access was blocked
system.cpu15.icache.blocked::no_targets             0                       # number of cycles access was blocked
system.cpu15.icache.avg_blocked_cycles::no_mshrs          nan                       # average number of cycles each access was blocked
system.cpu15.icache.avg_blocked_cycles::no_targets          nan                       # average number of cycles each access was blocked
system.cpu15.icache.fast_writes                     0                       # number of fast writes performed
system.cpu15.icache.cache_copies                    0                       # number of cache copies performed
system.cpu15.icache.ReadReq_mshr_hits::switch_cpus15.inst           10                       # number of ReadReq MSHR hits
system.cpu15.icache.ReadReq_mshr_hits::total           10                       # number of ReadReq MSHR hits
system.cpu15.icache.demand_mshr_hits::switch_cpus15.inst           10                       # number of demand (read+write) MSHR hits
system.cpu15.icache.demand_mshr_hits::total           10                       # number of demand (read+write) MSHR hits
system.cpu15.icache.overall_mshr_hits::switch_cpus15.inst           10                       # number of overall MSHR hits
system.cpu15.icache.overall_mshr_hits::total           10                       # number of overall MSHR hits
system.cpu15.icache.ReadReq_mshr_misses::switch_cpus15.inst           32                       # number of ReadReq MSHR misses
system.cpu15.icache.ReadReq_mshr_misses::total           32                       # number of ReadReq MSHR misses
system.cpu15.icache.demand_mshr_misses::switch_cpus15.inst           32                       # number of demand (read+write) MSHR misses
system.cpu15.icache.demand_mshr_misses::total           32                       # number of demand (read+write) MSHR misses
system.cpu15.icache.overall_mshr_misses::switch_cpus15.inst           32                       # number of overall MSHR misses
system.cpu15.icache.overall_mshr_misses::total           32                       # number of overall MSHR misses
system.cpu15.icache.ReadReq_mshr_miss_latency::switch_cpus15.inst      5225705                       # number of ReadReq MSHR miss cycles
system.cpu15.icache.ReadReq_mshr_miss_latency::total      5225705                       # number of ReadReq MSHR miss cycles
system.cpu15.icache.demand_mshr_miss_latency::switch_cpus15.inst      5225705                       # number of demand (read+write) MSHR miss cycles
system.cpu15.icache.demand_mshr_miss_latency::total      5225705                       # number of demand (read+write) MSHR miss cycles
system.cpu15.icache.overall_mshr_miss_latency::switch_cpus15.inst      5225705                       # number of overall MSHR miss cycles
system.cpu15.icache.overall_mshr_miss_latency::total      5225705                       # number of overall MSHR miss cycles
system.cpu15.icache.ReadReq_mshr_miss_rate::switch_cpus15.inst     0.000026                       # mshr miss rate for ReadReq accesses
system.cpu15.icache.ReadReq_mshr_miss_rate::total     0.000026                       # mshr miss rate for ReadReq accesses
system.cpu15.icache.demand_mshr_miss_rate::switch_cpus15.inst     0.000026                       # mshr miss rate for demand accesses
system.cpu15.icache.demand_mshr_miss_rate::total     0.000026                       # mshr miss rate for demand accesses
system.cpu15.icache.overall_mshr_miss_rate::switch_cpus15.inst     0.000026                       # mshr miss rate for overall accesses
system.cpu15.icache.overall_mshr_miss_rate::total     0.000026                       # mshr miss rate for overall accesses
system.cpu15.icache.ReadReq_avg_mshr_miss_latency::switch_cpus15.inst 163303.281250                       # average ReadReq mshr miss latency
system.cpu15.icache.ReadReq_avg_mshr_miss_latency::total 163303.281250                       # average ReadReq mshr miss latency
system.cpu15.icache.demand_avg_mshr_miss_latency::switch_cpus15.inst 163303.281250                       # average overall mshr miss latency
system.cpu15.icache.demand_avg_mshr_miss_latency::total 163303.281250                       # average overall mshr miss latency
system.cpu15.icache.overall_avg_mshr_miss_latency::switch_cpus15.inst 163303.281250                       # average overall mshr miss latency
system.cpu15.icache.overall_avg_mshr_miss_latency::total 163303.281250                       # average overall mshr miss latency
system.cpu15.icache.no_allocate_misses              0                       # Number of misses that were no-allocate
system.cpu15.dcache.replacements                 5751                       # number of replacements
system.cpu15.dcache.tagsinuse                     256                       # Cycle average of tags in use
system.cpu15.dcache.total_refs              204293864                       # Total number of references to valid blocks.
system.cpu15.dcache.sampled_refs                 6007                       # Sample count of references to valid blocks.
system.cpu15.dcache.avg_refs             34009.299817                       # Average number of references to valid blocks.
system.cpu15.dcache.warmup_cycle                    0                       # Cycle when the warmup percentage was hit.
system.cpu15.dcache.occ_blocks::switch_cpus15.data   184.600170                       # Average occupied blocks per requestor
system.cpu15.dcache.occ_blocks::cpu15.data    71.399830                       # Average occupied blocks per requestor
system.cpu15.dcache.occ_percent::switch_cpus15.data     0.721094                       # Average percentage of cache occupancy
system.cpu15.dcache.occ_percent::cpu15.data     0.278906                       # Average percentage of cache occupancy
system.cpu15.dcache.occ_percent::total              1                       # Average percentage of cache occupancy
system.cpu15.dcache.ReadReq_hits::switch_cpus15.data      1850467                       # number of ReadReq hits
system.cpu15.dcache.ReadReq_hits::total       1850467                       # number of ReadReq hits
system.cpu15.dcache.WriteReq_hits::switch_cpus15.data       339408                       # number of WriteReq hits
system.cpu15.dcache.WriteReq_hits::total       339408                       # number of WriteReq hits
system.cpu15.dcache.LoadLockedReq_hits::switch_cpus15.data          807                       # number of LoadLockedReq hits
system.cpu15.dcache.LoadLockedReq_hits::total          807                       # number of LoadLockedReq hits
system.cpu15.dcache.StoreCondReq_hits::switch_cpus15.data          795                       # number of StoreCondReq hits
system.cpu15.dcache.StoreCondReq_hits::total          795                       # number of StoreCondReq hits
system.cpu15.dcache.demand_hits::switch_cpus15.data      2189875                       # number of demand (read+write) hits
system.cpu15.dcache.demand_hits::total        2189875                       # number of demand (read+write) hits
system.cpu15.dcache.overall_hits::switch_cpus15.data      2189875                       # number of overall hits
system.cpu15.dcache.overall_hits::total       2189875                       # number of overall hits
system.cpu15.dcache.ReadReq_misses::switch_cpus15.data        19963                       # number of ReadReq misses
system.cpu15.dcache.ReadReq_misses::total        19963                       # number of ReadReq misses
system.cpu15.dcache.WriteReq_misses::switch_cpus15.data           45                       # number of WriteReq misses
system.cpu15.dcache.WriteReq_misses::total           45                       # number of WriteReq misses
system.cpu15.dcache.demand_misses::switch_cpus15.data        20008                       # number of demand (read+write) misses
system.cpu15.dcache.demand_misses::total        20008                       # number of demand (read+write) misses
system.cpu15.dcache.overall_misses::switch_cpus15.data        20008                       # number of overall misses
system.cpu15.dcache.overall_misses::total        20008                       # number of overall misses
system.cpu15.dcache.ReadReq_miss_latency::switch_cpus15.data   2141979840                       # number of ReadReq miss cycles
system.cpu15.dcache.ReadReq_miss_latency::total   2141979840                       # number of ReadReq miss cycles
system.cpu15.dcache.WriteReq_miss_latency::switch_cpus15.data      3862998                       # number of WriteReq miss cycles
system.cpu15.dcache.WriteReq_miss_latency::total      3862998                       # number of WriteReq miss cycles
system.cpu15.dcache.demand_miss_latency::switch_cpus15.data   2145842838                       # number of demand (read+write) miss cycles
system.cpu15.dcache.demand_miss_latency::total   2145842838                       # number of demand (read+write) miss cycles
system.cpu15.dcache.overall_miss_latency::switch_cpus15.data   2145842838                       # number of overall miss cycles
system.cpu15.dcache.overall_miss_latency::total   2145842838                       # number of overall miss cycles
system.cpu15.dcache.ReadReq_accesses::switch_cpus15.data      1870430                       # number of ReadReq accesses(hits+misses)
system.cpu15.dcache.ReadReq_accesses::total      1870430                       # number of ReadReq accesses(hits+misses)
system.cpu15.dcache.WriteReq_accesses::switch_cpus15.data       339453                       # number of WriteReq accesses(hits+misses)
system.cpu15.dcache.WriteReq_accesses::total       339453                       # number of WriteReq accesses(hits+misses)
system.cpu15.dcache.LoadLockedReq_accesses::switch_cpus15.data          807                       # number of LoadLockedReq accesses(hits+misses)
system.cpu15.dcache.LoadLockedReq_accesses::total          807                       # number of LoadLockedReq accesses(hits+misses)
system.cpu15.dcache.StoreCondReq_accesses::switch_cpus15.data          795                       # number of StoreCondReq accesses(hits+misses)
system.cpu15.dcache.StoreCondReq_accesses::total          795                       # number of StoreCondReq accesses(hits+misses)
system.cpu15.dcache.demand_accesses::switch_cpus15.data      2209883                       # number of demand (read+write) accesses
system.cpu15.dcache.demand_accesses::total      2209883                       # number of demand (read+write) accesses
system.cpu15.dcache.overall_accesses::switch_cpus15.data      2209883                       # number of overall (read+write) accesses
system.cpu15.dcache.overall_accesses::total      2209883                       # number of overall (read+write) accesses
system.cpu15.dcache.ReadReq_miss_rate::switch_cpus15.data     0.010673                       # miss rate for ReadReq accesses
system.cpu15.dcache.ReadReq_miss_rate::total     0.010673                       # miss rate for ReadReq accesses
system.cpu15.dcache.WriteReq_miss_rate::switch_cpus15.data     0.000133                       # miss rate for WriteReq accesses
system.cpu15.dcache.WriteReq_miss_rate::total     0.000133                       # miss rate for WriteReq accesses
system.cpu15.dcache.demand_miss_rate::switch_cpus15.data     0.009054                       # miss rate for demand accesses
system.cpu15.dcache.demand_miss_rate::total     0.009054                       # miss rate for demand accesses
system.cpu15.dcache.overall_miss_rate::switch_cpus15.data     0.009054                       # miss rate for overall accesses
system.cpu15.dcache.overall_miss_rate::total     0.009054                       # miss rate for overall accesses
system.cpu15.dcache.ReadReq_avg_miss_latency::switch_cpus15.data 107297.492361                       # average ReadReq miss latency
system.cpu15.dcache.ReadReq_avg_miss_latency::total 107297.492361                       # average ReadReq miss latency
system.cpu15.dcache.WriteReq_avg_miss_latency::switch_cpus15.data 85844.400000                       # average WriteReq miss latency
system.cpu15.dcache.WriteReq_avg_miss_latency::total 85844.400000                       # average WriteReq miss latency
system.cpu15.dcache.demand_avg_miss_latency::switch_cpus15.data 107249.242203                       # average overall miss latency
system.cpu15.dcache.demand_avg_miss_latency::total 107249.242203                       # average overall miss latency
system.cpu15.dcache.overall_avg_miss_latency::switch_cpus15.data 107249.242203                       # average overall miss latency
system.cpu15.dcache.overall_avg_miss_latency::total 107249.242203                       # average overall miss latency
system.cpu15.dcache.blocked_cycles::no_mshrs            0                       # number of cycles access was blocked
system.cpu15.dcache.blocked_cycles::no_targets            0                       # number of cycles access was blocked
system.cpu15.dcache.blocked::no_mshrs               0                       # number of cycles access was blocked
system.cpu15.dcache.blocked::no_targets             0                       # number of cycles access was blocked
system.cpu15.dcache.avg_blocked_cycles::no_mshrs          nan                       # average number of cycles each access was blocked
system.cpu15.dcache.avg_blocked_cycles::no_targets          nan                       # average number of cycles each access was blocked
system.cpu15.dcache.fast_writes                     0                       # number of fast writes performed
system.cpu15.dcache.cache_copies                    0                       # number of cache copies performed
system.cpu15.dcache.writebacks::writebacks          639                       # number of writebacks
system.cpu15.dcache.writebacks::total             639                       # number of writebacks
system.cpu15.dcache.ReadReq_mshr_hits::switch_cpus15.data        14221                       # number of ReadReq MSHR hits
system.cpu15.dcache.ReadReq_mshr_hits::total        14221                       # number of ReadReq MSHR hits
system.cpu15.dcache.WriteReq_mshr_hits::switch_cpus15.data           36                       # number of WriteReq MSHR hits
system.cpu15.dcache.WriteReq_mshr_hits::total           36                       # number of WriteReq MSHR hits
system.cpu15.dcache.demand_mshr_hits::switch_cpus15.data        14257                       # number of demand (read+write) MSHR hits
system.cpu15.dcache.demand_mshr_hits::total        14257                       # number of demand (read+write) MSHR hits
system.cpu15.dcache.overall_mshr_hits::switch_cpus15.data        14257                       # number of overall MSHR hits
system.cpu15.dcache.overall_mshr_hits::total        14257                       # number of overall MSHR hits
system.cpu15.dcache.ReadReq_mshr_misses::switch_cpus15.data         5742                       # number of ReadReq MSHR misses
system.cpu15.dcache.ReadReq_mshr_misses::total         5742                       # number of ReadReq MSHR misses
system.cpu15.dcache.WriteReq_mshr_misses::switch_cpus15.data            9                       # number of WriteReq MSHR misses
system.cpu15.dcache.WriteReq_mshr_misses::total            9                       # number of WriteReq MSHR misses
system.cpu15.dcache.demand_mshr_misses::switch_cpus15.data         5751                       # number of demand (read+write) MSHR misses
system.cpu15.dcache.demand_mshr_misses::total         5751                       # number of demand (read+write) MSHR misses
system.cpu15.dcache.overall_mshr_misses::switch_cpus15.data         5751                       # number of overall MSHR misses
system.cpu15.dcache.overall_mshr_misses::total         5751                       # number of overall MSHR misses
system.cpu15.dcache.ReadReq_mshr_miss_latency::switch_cpus15.data    573348088                       # number of ReadReq MSHR miss cycles
system.cpu15.dcache.ReadReq_mshr_miss_latency::total    573348088                       # number of ReadReq MSHR miss cycles
system.cpu15.dcache.WriteReq_mshr_miss_latency::switch_cpus15.data       595992                       # number of WriteReq MSHR miss cycles
system.cpu15.dcache.WriteReq_mshr_miss_latency::total       595992                       # number of WriteReq MSHR miss cycles
system.cpu15.dcache.demand_mshr_miss_latency::switch_cpus15.data    573944080                       # number of demand (read+write) MSHR miss cycles
system.cpu15.dcache.demand_mshr_miss_latency::total    573944080                       # number of demand (read+write) MSHR miss cycles
system.cpu15.dcache.overall_mshr_miss_latency::switch_cpus15.data    573944080                       # number of overall MSHR miss cycles
system.cpu15.dcache.overall_mshr_miss_latency::total    573944080                       # number of overall MSHR miss cycles
system.cpu15.dcache.ReadReq_mshr_miss_rate::switch_cpus15.data     0.003070                       # mshr miss rate for ReadReq accesses
system.cpu15.dcache.ReadReq_mshr_miss_rate::total     0.003070                       # mshr miss rate for ReadReq accesses
system.cpu15.dcache.WriteReq_mshr_miss_rate::switch_cpus15.data     0.000027                       # mshr miss rate for WriteReq accesses
system.cpu15.dcache.WriteReq_mshr_miss_rate::total     0.000027                       # mshr miss rate for WriteReq accesses
system.cpu15.dcache.demand_mshr_miss_rate::switch_cpus15.data     0.002602                       # mshr miss rate for demand accesses
system.cpu15.dcache.demand_mshr_miss_rate::total     0.002602                       # mshr miss rate for demand accesses
system.cpu15.dcache.overall_mshr_miss_rate::switch_cpus15.data     0.002602                       # mshr miss rate for overall accesses
system.cpu15.dcache.overall_mshr_miss_rate::total     0.002602                       # mshr miss rate for overall accesses
system.cpu15.dcache.ReadReq_avg_mshr_miss_latency::switch_cpus15.data 99851.634970                       # average ReadReq mshr miss latency
system.cpu15.dcache.ReadReq_avg_mshr_miss_latency::total 99851.634970                       # average ReadReq mshr miss latency
system.cpu15.dcache.WriteReq_avg_mshr_miss_latency::switch_cpus15.data 66221.333333                       # average WriteReq mshr miss latency
system.cpu15.dcache.WriteReq_avg_mshr_miss_latency::total 66221.333333                       # average WriteReq mshr miss latency
system.cpu15.dcache.demand_avg_mshr_miss_latency::switch_cpus15.data 99799.005390                       # average overall mshr miss latency
system.cpu15.dcache.demand_avg_mshr_miss_latency::total 99799.005390                       # average overall mshr miss latency
system.cpu15.dcache.overall_avg_mshr_miss_latency::switch_cpus15.data 99799.005390                       # average overall mshr miss latency
system.cpu15.dcache.overall_avg_mshr_miss_latency::total 99799.005390                       # average overall mshr miss latency
system.cpu15.dcache.no_allocate_misses              0                       # Number of misses that were no-allocate

---------- End Simulation Statistics   ----------
