
---------- Begin Simulation Statistics ----------
sim_seconds                                  0.010141                       # Number of seconds simulated
sim_ticks                                 10140951276                       # Number of ticks simulated
final_tick                               536327936040                       # Number of ticks from beginning of simulation (restored from checkpoints and never reset)
sim_freq                                 1000000000000                       # Frequency of simulated ticks
host_inst_rate                                 198104                       # Simulator instruction rate (inst/s)
host_op_rate                                   248301                       # Simulator op (including micro ops) rate (op/s)
host_tick_rate                                 247057                       # Simulator tick rate (ticks/s)
host_mem_usage                               67337208                       # Number of bytes of host memory used
host_seconds                                 41046.99                       # Real time elapsed on the host
sim_insts                                  8131557532                       # Number of instructions simulated
sim_ops                                   10191997837                       # Number of ops (including micro ops) simulated
system.physmem.bytes_read::switch_cpus0.inst         5120                       # Number of bytes read from this memory
system.physmem.bytes_read::switch_cpus0.data        97280                       # Number of bytes read from this memory
system.physmem.bytes_read::switch_cpus1.inst         4608                       # Number of bytes read from this memory
system.physmem.bytes_read::switch_cpus1.data       257792                       # Number of bytes read from this memory
system.physmem.bytes_read::switch_cpus2.inst         4096                       # Number of bytes read from this memory
system.physmem.bytes_read::switch_cpus2.data       290688                       # Number of bytes read from this memory
system.physmem.bytes_read::switch_cpus3.inst         4992                       # Number of bytes read from this memory
system.physmem.bytes_read::switch_cpus3.data       120832                       # Number of bytes read from this memory
system.physmem.bytes_read::switch_cpus4.inst         4224                       # Number of bytes read from this memory
system.physmem.bytes_read::switch_cpus4.data       166528                       # Number of bytes read from this memory
system.physmem.bytes_read::switch_cpus5.inst         4096                       # Number of bytes read from this memory
system.physmem.bytes_read::switch_cpus5.data       291712                       # Number of bytes read from this memory
system.physmem.bytes_read::switch_cpus6.inst         4352                       # Number of bytes read from this memory
system.physmem.bytes_read::switch_cpus6.data       169984                       # Number of bytes read from this memory
system.physmem.bytes_read::switch_cpus7.inst         4864                       # Number of bytes read from this memory
system.physmem.bytes_read::switch_cpus7.data        99968                       # Number of bytes read from this memory
system.physmem.bytes_read::total              1531136                       # Number of bytes read from this memory
system.physmem.bytes_inst_read::switch_cpus0.inst         5120                       # Number of instructions bytes read from this memory
system.physmem.bytes_inst_read::switch_cpus1.inst         4608                       # Number of instructions bytes read from this memory
system.physmem.bytes_inst_read::switch_cpus2.inst         4096                       # Number of instructions bytes read from this memory
system.physmem.bytes_inst_read::switch_cpus3.inst         4992                       # Number of instructions bytes read from this memory
system.physmem.bytes_inst_read::switch_cpus4.inst         4224                       # Number of instructions bytes read from this memory
system.physmem.bytes_inst_read::switch_cpus5.inst         4096                       # Number of instructions bytes read from this memory
system.physmem.bytes_inst_read::switch_cpus6.inst         4352                       # Number of instructions bytes read from this memory
system.physmem.bytes_inst_read::switch_cpus7.inst         4864                       # Number of instructions bytes read from this memory
system.physmem.bytes_inst_read::total           36352                       # Number of instructions bytes read from this memory
system.physmem.bytes_written::writebacks       622464                       # Number of bytes written to this memory
system.physmem.bytes_written::total            622464                       # Number of bytes written to this memory
system.physmem.num_reads::switch_cpus0.inst           40                       # Number of read requests responded to by this memory
system.physmem.num_reads::switch_cpus0.data          760                       # Number of read requests responded to by this memory
system.physmem.num_reads::switch_cpus1.inst           36                       # Number of read requests responded to by this memory
system.physmem.num_reads::switch_cpus1.data         2014                       # Number of read requests responded to by this memory
system.physmem.num_reads::switch_cpus2.inst           32                       # Number of read requests responded to by this memory
system.physmem.num_reads::switch_cpus2.data         2271                       # Number of read requests responded to by this memory
system.physmem.num_reads::switch_cpus3.inst           39                       # Number of read requests responded to by this memory
system.physmem.num_reads::switch_cpus3.data          944                       # Number of read requests responded to by this memory
system.physmem.num_reads::switch_cpus4.inst           33                       # Number of read requests responded to by this memory
system.physmem.num_reads::switch_cpus4.data         1301                       # Number of read requests responded to by this memory
system.physmem.num_reads::switch_cpus5.inst           32                       # Number of read requests responded to by this memory
system.physmem.num_reads::switch_cpus5.data         2279                       # Number of read requests responded to by this memory
system.physmem.num_reads::switch_cpus6.inst           34                       # Number of read requests responded to by this memory
system.physmem.num_reads::switch_cpus6.data         1328                       # Number of read requests responded to by this memory
system.physmem.num_reads::switch_cpus7.inst           38                       # Number of read requests responded to by this memory
system.physmem.num_reads::switch_cpus7.data          781                       # Number of read requests responded to by this memory
system.physmem.num_reads::total                 11962                       # Number of read requests responded to by this memory
system.physmem.num_writes::writebacks            4863                       # Number of write requests responded to by this memory
system.physmem.num_writes::functional               0                       # Number of write requests responded to by this memory
system.physmem.num_writes::interrupt                0                       # Number of write requests responded to by this memory
system.physmem.num_writes::switch_cpus0.dtb.walker            0                       # Number of write requests responded to by this memory
system.physmem.num_writes::switch_cpus0.itb.walker            0                       # Number of write requests responded to by this memory
system.physmem.num_writes::switch_cpus0.inst            0                       # Number of write requests responded to by this memory
system.physmem.num_writes::switch_cpus0.data            0                       # Number of write requests responded to by this memory
system.physmem.num_writes::switch_cpus1.dtb.walker            0                       # Number of write requests responded to by this memory
system.physmem.num_writes::switch_cpus1.itb.walker            0                       # Number of write requests responded to by this memory
system.physmem.num_writes::switch_cpus1.inst            0                       # Number of write requests responded to by this memory
system.physmem.num_writes::switch_cpus1.data            0                       # Number of write requests responded to by this memory
system.physmem.num_writes::switch_cpus2.dtb.walker            0                       # Number of write requests responded to by this memory
system.physmem.num_writes::switch_cpus2.itb.walker            0                       # Number of write requests responded to by this memory
system.physmem.num_writes::switch_cpus2.inst            0                       # Number of write requests responded to by this memory
system.physmem.num_writes::switch_cpus2.data            0                       # Number of write requests responded to by this memory
system.physmem.num_writes::switch_cpus3.dtb.walker            0                       # Number of write requests responded to by this memory
system.physmem.num_writes::switch_cpus3.itb.walker            0                       # Number of write requests responded to by this memory
system.physmem.num_writes::switch_cpus3.inst            0                       # Number of write requests responded to by this memory
system.physmem.num_writes::switch_cpus3.data            0                       # Number of write requests responded to by this memory
system.physmem.num_writes::switch_cpus4.dtb.walker            0                       # Number of write requests responded to by this memory
system.physmem.num_writes::switch_cpus4.itb.walker            0                       # Number of write requests responded to by this memory
system.physmem.num_writes::switch_cpus4.inst            0                       # Number of write requests responded to by this memory
system.physmem.num_writes::switch_cpus4.data            0                       # Number of write requests responded to by this memory
system.physmem.num_writes::switch_cpus5.dtb.walker            0                       # Number of write requests responded to by this memory
system.physmem.num_writes::switch_cpus5.itb.walker            0                       # Number of write requests responded to by this memory
system.physmem.num_writes::switch_cpus5.inst            0                       # Number of write requests responded to by this memory
system.physmem.num_writes::switch_cpus5.data            0                       # Number of write requests responded to by this memory
system.physmem.num_writes::switch_cpus6.dtb.walker            0                       # Number of write requests responded to by this memory
system.physmem.num_writes::switch_cpus6.itb.walker            0                       # Number of write requests responded to by this memory
system.physmem.num_writes::switch_cpus6.inst            0                       # Number of write requests responded to by this memory
system.physmem.num_writes::switch_cpus6.data            0                       # Number of write requests responded to by this memory
system.physmem.num_writes::switch_cpus7.dtb.walker            0                       # Number of write requests responded to by this memory
system.physmem.num_writes::switch_cpus7.itb.walker            0                       # Number of write requests responded to by this memory
system.physmem.num_writes::switch_cpus7.inst            0                       # Number of write requests responded to by this memory
system.physmem.num_writes::switch_cpus7.data            0                       # Number of write requests responded to by this memory
system.physmem.num_writes::cpu0.dtb.walker            0                       # Number of write requests responded to by this memory
system.physmem.num_writes::cpu0.itb.walker            0                       # Number of write requests responded to by this memory
system.physmem.num_writes::cpu0.inst                0                       # Number of write requests responded to by this memory
system.physmem.num_writes::cpu0.data                0                       # Number of write requests responded to by this memory
system.physmem.num_writes::cpu1.dtb.walker            0                       # Number of write requests responded to by this memory
system.physmem.num_writes::cpu1.itb.walker            0                       # Number of write requests responded to by this memory
system.physmem.num_writes::cpu1.inst                0                       # Number of write requests responded to by this memory
system.physmem.num_writes::cpu1.data                0                       # Number of write requests responded to by this memory
system.physmem.num_writes::cpu2.dtb.walker            0                       # Number of write requests responded to by this memory
system.physmem.num_writes::cpu2.itb.walker            0                       # Number of write requests responded to by this memory
system.physmem.num_writes::cpu2.inst                0                       # Number of write requests responded to by this memory
system.physmem.num_writes::cpu2.data                0                       # Number of write requests responded to by this memory
system.physmem.num_writes::cpu3.dtb.walker            0                       # Number of write requests responded to by this memory
system.physmem.num_writes::cpu3.itb.walker            0                       # Number of write requests responded to by this memory
system.physmem.num_writes::cpu3.inst                0                       # Number of write requests responded to by this memory
system.physmem.num_writes::cpu3.data                0                       # Number of write requests responded to by this memory
system.physmem.num_writes::cpu4.dtb.walker            0                       # Number of write requests responded to by this memory
system.physmem.num_writes::cpu4.itb.walker            0                       # Number of write requests responded to by this memory
system.physmem.num_writes::cpu4.inst                0                       # Number of write requests responded to by this memory
system.physmem.num_writes::cpu4.data                0                       # Number of write requests responded to by this memory
system.physmem.num_writes::cpu5.dtb.walker            0                       # Number of write requests responded to by this memory
system.physmem.num_writes::cpu5.itb.walker            0                       # Number of write requests responded to by this memory
system.physmem.num_writes::cpu5.inst                0                       # Number of write requests responded to by this memory
system.physmem.num_writes::cpu5.data                0                       # Number of write requests responded to by this memory
system.physmem.num_writes::cpu6.dtb.walker            0                       # Number of write requests responded to by this memory
system.physmem.num_writes::cpu6.itb.walker            0                       # Number of write requests responded to by this memory
system.physmem.num_writes::cpu6.inst                0                       # Number of write requests responded to by this memory
system.physmem.num_writes::cpu6.data                0                       # Number of write requests responded to by this memory
system.physmem.num_writes::cpu7.dtb.walker            0                       # Number of write requests responded to by this memory
system.physmem.num_writes::cpu7.itb.walker            0                       # Number of write requests responded to by this memory
system.physmem.num_writes::cpu7.inst                0                       # Number of write requests responded to by this memory
system.physmem.num_writes::cpu7.data                0                       # Number of write requests responded to by this memory
system.physmem.num_writes::total                 4863                       # Number of write requests responded to by this memory
system.physmem.bw_read::switch_cpus0.inst       504884                       # Total read bandwidth from this memory (bytes/s)
system.physmem.bw_read::switch_cpus0.data      9592788                       # Total read bandwidth from this memory (bytes/s)
system.physmem.bw_read::switch_cpus1.inst       454395                       # Total read bandwidth from this memory (bytes/s)
system.physmem.bw_read::switch_cpus1.data     25420889                       # Total read bandwidth from this memory (bytes/s)
system.physmem.bw_read::switch_cpus2.inst       403907                       # Total read bandwidth from this memory (bytes/s)
system.physmem.bw_read::switch_cpus2.data     28664766                       # Total read bandwidth from this memory (bytes/s)
system.physmem.bw_read::switch_cpus3.inst       492262                       # Total read bandwidth from this memory (bytes/s)
system.physmem.bw_read::switch_cpus3.data     11915253                       # Total read bandwidth from this memory (bytes/s)
system.physmem.bw_read::switch_cpus4.inst       416529                       # Total read bandwidth from this memory (bytes/s)
system.physmem.bw_read::switch_cpus4.data     16421339                       # Total read bandwidth from this memory (bytes/s)
system.physmem.bw_read::switch_cpus5.inst       403907                       # Total read bandwidth from this memory (bytes/s)
system.physmem.bw_read::switch_cpus5.data     28765743                       # Total read bandwidth from this memory (bytes/s)
system.physmem.bw_read::switch_cpus6.inst       429151                       # Total read bandwidth from this memory (bytes/s)
system.physmem.bw_read::switch_cpus6.data     16762136                       # Total read bandwidth from this memory (bytes/s)
system.physmem.bw_read::switch_cpus7.inst       479639                       # Total read bandwidth from this memory (bytes/s)
system.physmem.bw_read::switch_cpus7.data      9857852                       # Total read bandwidth from this memory (bytes/s)
system.physmem.bw_read::total               150985441                       # Total read bandwidth from this memory (bytes/s)
system.physmem.bw_inst_read::switch_cpus0.inst       504884                       # Instruction read bandwidth from this memory (bytes/s)
system.physmem.bw_inst_read::switch_cpus1.inst       454395                       # Instruction read bandwidth from this memory (bytes/s)
system.physmem.bw_inst_read::switch_cpus2.inst       403907                       # Instruction read bandwidth from this memory (bytes/s)
system.physmem.bw_inst_read::switch_cpus3.inst       492262                       # Instruction read bandwidth from this memory (bytes/s)
system.physmem.bw_inst_read::switch_cpus4.inst       416529                       # Instruction read bandwidth from this memory (bytes/s)
system.physmem.bw_inst_read::switch_cpus5.inst       403907                       # Instruction read bandwidth from this memory (bytes/s)
system.physmem.bw_inst_read::switch_cpus6.inst       429151                       # Instruction read bandwidth from this memory (bytes/s)
system.physmem.bw_inst_read::switch_cpus7.inst       479639                       # Instruction read bandwidth from this memory (bytes/s)
system.physmem.bw_inst_read::total            3584674                       # Instruction read bandwidth from this memory (bytes/s)
system.physmem.bw_write::writebacks          61381224                       # Write bandwidth from this memory (bytes/s)
system.physmem.bw_write::total               61381224                       # Write bandwidth from this memory (bytes/s)
system.physmem.bw_total::writebacks          61381224                       # Total bandwidth to/from this memory (bytes/s)
system.physmem.bw_total::switch_cpus0.inst       504884                       # Total bandwidth to/from this memory (bytes/s)
system.physmem.bw_total::switch_cpus0.data      9592788                       # Total bandwidth to/from this memory (bytes/s)
system.physmem.bw_total::switch_cpus1.inst       454395                       # Total bandwidth to/from this memory (bytes/s)
system.physmem.bw_total::switch_cpus1.data     25420889                       # Total bandwidth to/from this memory (bytes/s)
system.physmem.bw_total::switch_cpus2.inst       403907                       # Total bandwidth to/from this memory (bytes/s)
system.physmem.bw_total::switch_cpus2.data     28664766                       # Total bandwidth to/from this memory (bytes/s)
system.physmem.bw_total::switch_cpus3.inst       492262                       # Total bandwidth to/from this memory (bytes/s)
system.physmem.bw_total::switch_cpus3.data     11915253                       # Total bandwidth to/from this memory (bytes/s)
system.physmem.bw_total::switch_cpus4.inst       416529                       # Total bandwidth to/from this memory (bytes/s)
system.physmem.bw_total::switch_cpus4.data     16421339                       # Total bandwidth to/from this memory (bytes/s)
system.physmem.bw_total::switch_cpus5.inst       403907                       # Total bandwidth to/from this memory (bytes/s)
system.physmem.bw_total::switch_cpus5.data     28765743                       # Total bandwidth to/from this memory (bytes/s)
system.physmem.bw_total::switch_cpus6.inst       429151                       # Total bandwidth to/from this memory (bytes/s)
system.physmem.bw_total::switch_cpus6.data     16762136                       # Total bandwidth to/from this memory (bytes/s)
system.physmem.bw_total::switch_cpus7.inst       479639                       # Total bandwidth to/from this memory (bytes/s)
system.physmem.bw_total::switch_cpus7.data      9857852                       # Total bandwidth to/from this memory (bytes/s)
system.physmem.bw_total::total              212366665                       # Total bandwidth to/from this memory (bytes/s)
system.switch_cpus0.dtb.inst_hits                   0                       # ITB inst hits
system.switch_cpus0.dtb.inst_misses                 0                       # ITB inst misses
system.switch_cpus0.dtb.read_hits                   0                       # DTB read hits
system.switch_cpus0.dtb.read_misses                 0                       # DTB read misses
system.switch_cpus0.dtb.write_hits                  0                       # DTB write hits
system.switch_cpus0.dtb.write_misses                0                       # DTB write misses
system.switch_cpus0.dtb.flush_tlb                   0                       # Number of times complete TLB was flushed
system.switch_cpus0.dtb.flush_tlb_mva               0                       # Number of times TLB was flushed by MVA
system.switch_cpus0.dtb.flush_tlb_mva_asid            0                       # Number of times TLB was flushed by MVA & ASID
system.switch_cpus0.dtb.flush_tlb_asid              0                       # Number of times TLB was flushed by ASID
system.switch_cpus0.dtb.flush_entries               0                       # Number of entries that have been flushed from TLB
system.switch_cpus0.dtb.align_faults                0                       # Number of TLB faults due to alignment restrictions
system.switch_cpus0.dtb.prefetch_faults             0                       # Number of TLB faults due to prefetch
system.switch_cpus0.dtb.domain_faults               0                       # Number of TLB faults due to domain restrictions
system.switch_cpus0.dtb.perms_faults                0                       # Number of TLB faults due to permissions restrictions
system.switch_cpus0.dtb.read_accesses               0                       # DTB read accesses
system.switch_cpus0.dtb.write_accesses              0                       # DTB write accesses
system.switch_cpus0.dtb.inst_accesses               0                       # ITB inst accesses
system.switch_cpus0.dtb.hits                        0                       # DTB hits
system.switch_cpus0.dtb.misses                      0                       # DTB misses
system.switch_cpus0.dtb.accesses                    0                       # DTB accesses
system.switch_cpus0.itb.inst_hits                   0                       # ITB inst hits
system.switch_cpus0.itb.inst_misses                 0                       # ITB inst misses
system.switch_cpus0.itb.read_hits                   0                       # DTB read hits
system.switch_cpus0.itb.read_misses                 0                       # DTB read misses
system.switch_cpus0.itb.write_hits                  0                       # DTB write hits
system.switch_cpus0.itb.write_misses                0                       # DTB write misses
system.switch_cpus0.itb.flush_tlb                   0                       # Number of times complete TLB was flushed
system.switch_cpus0.itb.flush_tlb_mva               0                       # Number of times TLB was flushed by MVA
system.switch_cpus0.itb.flush_tlb_mva_asid            0                       # Number of times TLB was flushed by MVA & ASID
system.switch_cpus0.itb.flush_tlb_asid              0                       # Number of times TLB was flushed by ASID
system.switch_cpus0.itb.flush_entries               0                       # Number of entries that have been flushed from TLB
system.switch_cpus0.itb.align_faults                0                       # Number of TLB faults due to alignment restrictions
system.switch_cpus0.itb.prefetch_faults             0                       # Number of TLB faults due to prefetch
system.switch_cpus0.itb.domain_faults               0                       # Number of TLB faults due to domain restrictions
system.switch_cpus0.itb.perms_faults                0                       # Number of TLB faults due to permissions restrictions
system.switch_cpus0.itb.read_accesses               0                       # DTB read accesses
system.switch_cpus0.itb.write_accesses              0                       # DTB write accesses
system.switch_cpus0.itb.inst_accesses               0                       # ITB inst accesses
system.switch_cpus0.itb.hits                        0                       # DTB hits
system.switch_cpus0.itb.misses                      0                       # DTB misses
system.switch_cpus0.itb.accesses                    0                       # DTB accesses
system.cpu0.workload.num_syscalls                   6                       # Number of system calls
system.switch_cpus0.numCycles                24318829                       # number of cpu cycles simulated
system.switch_cpus0.numWorkItemsStarted             0                       # number of work items this cpu started
system.switch_cpus0.numWorkItemsCompleted            0                       # number of work items this cpu completed
system.switch_cpus0.BPredUnit.lookups         2212626                       # Number of BP lookups
system.switch_cpus0.BPredUnit.condPredicted      1842074                       # Number of conditional branches predicted
system.switch_cpus0.BPredUnit.condIncorrect       202427                       # Number of conditional branches incorrect
system.switch_cpus0.BPredUnit.BTBLookups       846885                       # Number of BTB lookups
system.switch_cpus0.BPredUnit.BTBHits          807656                       # Number of BTB hits
system.switch_cpus0.BPredUnit.BTBCorrect            0                       # Number of correct BTB predictions (this stat may not work properly.
system.switch_cpus0.BPredUnit.usedRAS          237678                       # Number of times the RAS was used to get a target.
system.switch_cpus0.BPredUnit.RASInCorrect         9445                       # Number of incorrect RAS predictions.
system.switch_cpus0.fetch.icacheStallCycles     19229256                       # Number of cycles fetch is stalled on an Icache miss
system.switch_cpus0.fetch.Insts              12133990                       # Number of instructions fetch has processed
system.switch_cpus0.fetch.Branches            2212626                       # Number of branches that fetch encountered
system.switch_cpus0.fetch.predictedBranches      1045334                       # Number of branches that fetch has predicted taken
system.switch_cpus0.fetch.Cycles              2528307                       # Number of cycles fetch has run and was not squashing or blocked
system.switch_cpus0.fetch.SquashCycles         565650                       # Number of cycles fetch has spent squashing
system.switch_cpus0.fetch.BlockedCycles        590426                       # Number of cycles fetch has spent blocked
system.switch_cpus0.fetch.CacheLines          1195733                       # Number of cache lines fetched
system.switch_cpus0.fetch.IcacheSquashes       193489                       # Number of outstanding Icache misses that were squashed
system.switch_cpus0.fetch.rateDist::samples     22709355                       # Number of instructions fetched each cycle (Total)
system.switch_cpus0.fetch.rateDist::mean     0.656819                       # Number of instructions fetched each cycle (Total)
system.switch_cpus0.fetch.rateDist::stdev     2.033125                       # Number of instructions fetched each cycle (Total)
system.switch_cpus0.fetch.rateDist::underflows            0      0.00%      0.00% # Number of instructions fetched each cycle (Total)
system.switch_cpus0.fetch.rateDist::0        20181048     88.87%     88.87% # Number of instructions fetched each cycle (Total)
system.switch_cpus0.fetch.rateDist::1          155021      0.68%     89.55% # Number of instructions fetched each cycle (Total)
system.switch_cpus0.fetch.rateDist::2          194724      0.86%     90.41% # Number of instructions fetched each cycle (Total)
system.switch_cpus0.fetch.rateDist::3          309673      1.36%     91.77% # Number of instructions fetched each cycle (Total)
system.switch_cpus0.fetch.rateDist::4          130479      0.57%     92.34% # Number of instructions fetched each cycle (Total)
system.switch_cpus0.fetch.rateDist::5          168693      0.74%     93.09% # Number of instructions fetched each cycle (Total)
system.switch_cpus0.fetch.rateDist::6          195235      0.86%     93.95% # Number of instructions fetched each cycle (Total)
system.switch_cpus0.fetch.rateDist::7           90192      0.40%     94.34% # Number of instructions fetched each cycle (Total)
system.switch_cpus0.fetch.rateDist::8         1284290      5.66%    100.00% # Number of instructions fetched each cycle (Total)
system.switch_cpus0.fetch.rateDist::overflows            0      0.00%    100.00% # Number of instructions fetched each cycle (Total)
system.switch_cpus0.fetch.rateDist::min_value            0                       # Number of instructions fetched each cycle (Total)
system.switch_cpus0.fetch.rateDist::max_value            8                       # Number of instructions fetched each cycle (Total)
system.switch_cpus0.fetch.rateDist::total     22709355                       # Number of instructions fetched each cycle (Total)
system.switch_cpus0.fetch.branchRate         0.090984                       # Number of branch fetches per cycle
system.switch_cpus0.fetch.rate               0.498955                       # Number of inst fetches per cycle
system.switch_cpus0.decode.IdleCycles        19115341                       # Number of cycles decode is idle
system.switch_cpus0.decode.BlockedCycles       715461                       # Number of cycles decode is blocked
system.switch_cpus0.decode.RunCycles          2516222                       # Number of cycles decode is running
system.switch_cpus0.decode.UnblockCycles         1248                       # Number of cycles decode is unblocking
system.switch_cpus0.decode.SquashCycles        361081                       # Number of cycles decode is squashing
system.switch_cpus0.decode.BranchResolved       336751                       # Number of times decode resolved a branch
system.switch_cpus0.decode.BranchMispred          285                       # Number of times decode detected a branch misprediction
system.switch_cpus0.decode.DecodedInsts      14833586                       # Number of instructions handled by decode
system.switch_cpus0.decode.SquashedInsts         1633                       # Number of squashed instructions handled by decode
system.switch_cpus0.rename.SquashCycles        361081                       # Number of cycles rename is squashing
system.switch_cpus0.rename.IdleCycles        19135332                       # Number of cycles rename is idle
system.switch_cpus0.rename.BlockCycles          62229                       # Number of cycles rename is blocking
system.switch_cpus0.rename.serializeStallCycles       598376                       # count of cycles rename stalled for serializing inst
system.switch_cpus0.rename.RunCycles          2497446                       # Number of cycles rename is running
system.switch_cpus0.rename.UnblockCycles        54887                       # Number of cycles rename is unblocking
system.switch_cpus0.rename.RenamedInsts      14741842                       # Number of instructions processed by rename
system.switch_cpus0.rename.ROBFullEvents           22                       # Number of times rename has blocked due to ROB full
system.switch_cpus0.rename.IQFullEvents          7765                       # Number of times rename has blocked due to IQ full
system.switch_cpus0.rename.LSQFullEvents        38243                       # Number of times rename has blocked due to LSQ full
system.switch_cpus0.rename.RenamedOperands     20583384                       # Number of destination operands rename has renamed
system.switch_cpus0.rename.RenameLookups     68548065                       # Number of register rename lookups that rename has made
system.switch_cpus0.rename.int_rename_lookups     68548065                       # Number of integer rename lookups
system.switch_cpus0.rename.CommittedMaps     17188036                       # Number of HB maps that are committed
system.switch_cpus0.rename.UndoneMaps         3395334                       # Number of HB maps that are undone due to squashing
system.switch_cpus0.rename.serializingInsts         3548                       # count of serializing insts renamed
system.switch_cpus0.rename.tempSerializingInsts         1842                       # count of temporary serializing insts renamed
system.switch_cpus0.rename.skidInsts           194548                       # count of insts added to the skid buffer
system.switch_cpus0.memDep0.insertedLoads      1383184                       # Number of loads inserted to the mem dependence unit.
system.switch_cpus0.memDep0.insertedStores       721805                       # Number of stores inserted to the mem dependence unit.
system.switch_cpus0.memDep0.conflictingLoads         8048                       # Number of conflicting loads.
system.switch_cpus0.memDep0.conflictingStores       165106                       # Number of conflicting stores.
system.switch_cpus0.iq.iqInstsAdded          14389641                       # Number of instructions added to the IQ (excludes non-spec)
system.switch_cpus0.iq.iqNonSpecInstsAdded         3564                       # Number of non-speculative instructions added to the IQ
system.switch_cpus0.iq.iqInstsIssued         13794600                       # Number of instructions issued
system.switch_cpus0.iq.iqSquashedInstsIssued        13720                       # Number of squashed instructions issued
system.switch_cpus0.iq.iqSquashedInstsExamined      1768451                       # Number of squashed instructions iterated over during squash; mainly for profiling
system.switch_cpus0.iq.iqSquashedOperandsExamined      3614500                       # Number of squashed operands that are examined and possibly removed from graph
system.switch_cpus0.iq.iqSquashedNonSpecRemoved          119                       # Number of squashed non-spec instructions that were removed
system.switch_cpus0.iq.issued_per_cycle::samples     22709355                       # Number of insts issued each cycle
system.switch_cpus0.iq.issued_per_cycle::mean     0.607441                       # Number of insts issued each cycle
system.switch_cpus0.iq.issued_per_cycle::stdev     1.328255                       # Number of insts issued each cycle
system.switch_cpus0.iq.issued_per_cycle::underflows            0      0.00%      0.00% # Number of insts issued each cycle
system.switch_cpus0.iq.issued_per_cycle::0     16865492     74.27%     74.27% # Number of insts issued each cycle
system.switch_cpus0.iq.issued_per_cycle::1      2664019     11.73%     86.00% # Number of insts issued each cycle
system.switch_cpus0.iq.issued_per_cycle::2      1090376      4.80%     90.80% # Number of insts issued each cycle
system.switch_cpus0.iq.issued_per_cycle::3       611114      2.69%     93.49% # Number of insts issued each cycle
system.switch_cpus0.iq.issued_per_cycle::4       827251      3.64%     97.13% # Number of insts issued each cycle
system.switch_cpus0.iq.issued_per_cycle::5       255270      1.12%     98.26% # Number of insts issued each cycle
system.switch_cpus0.iq.issued_per_cycle::6       250486      1.10%     99.36% # Number of insts issued each cycle
system.switch_cpus0.iq.issued_per_cycle::7       134559      0.59%     99.95% # Number of insts issued each cycle
system.switch_cpus0.iq.issued_per_cycle::8        10788      0.05%    100.00% # Number of insts issued each cycle
system.switch_cpus0.iq.issued_per_cycle::overflows            0      0.00%    100.00% # Number of insts issued each cycle
system.switch_cpus0.iq.issued_per_cycle::min_value            0                       # Number of insts issued each cycle
system.switch_cpus0.iq.issued_per_cycle::max_value            8                       # Number of insts issued each cycle
system.switch_cpus0.iq.issued_per_cycle::total     22709355                       # Number of insts issued each cycle
system.switch_cpus0.iq.fu_full::No_OpClass            0      0.00%      0.00% # attempts to use FU when none available
system.switch_cpus0.iq.fu_full::IntAlu          94372     78.77%     78.77% # attempts to use FU when none available
system.switch_cpus0.iq.fu_full::IntMult             0      0.00%     78.77% # attempts to use FU when none available
system.switch_cpus0.iq.fu_full::IntDiv              0      0.00%     78.77% # attempts to use FU when none available
system.switch_cpus0.iq.fu_full::FloatAdd            0      0.00%     78.77% # attempts to use FU when none available
system.switch_cpus0.iq.fu_full::FloatCmp            0      0.00%     78.77% # attempts to use FU when none available
system.switch_cpus0.iq.fu_full::FloatCvt            0      0.00%     78.77% # attempts to use FU when none available
system.switch_cpus0.iq.fu_full::FloatMult            0      0.00%     78.77% # attempts to use FU when none available
system.switch_cpus0.iq.fu_full::FloatDiv            0      0.00%     78.77% # attempts to use FU when none available
system.switch_cpus0.iq.fu_full::FloatSqrt            0      0.00%     78.77% # attempts to use FU when none available
system.switch_cpus0.iq.fu_full::SimdAdd             0      0.00%     78.77% # attempts to use FU when none available
system.switch_cpus0.iq.fu_full::SimdAddAcc            0      0.00%     78.77% # attempts to use FU when none available
system.switch_cpus0.iq.fu_full::SimdAlu             0      0.00%     78.77% # attempts to use FU when none available
system.switch_cpus0.iq.fu_full::SimdCmp             0      0.00%     78.77% # attempts to use FU when none available
system.switch_cpus0.iq.fu_full::SimdCvt             0      0.00%     78.77% # attempts to use FU when none available
system.switch_cpus0.iq.fu_full::SimdMisc            0      0.00%     78.77% # attempts to use FU when none available
system.switch_cpus0.iq.fu_full::SimdMult            0      0.00%     78.77% # attempts to use FU when none available
system.switch_cpus0.iq.fu_full::SimdMultAcc            0      0.00%     78.77% # attempts to use FU when none available
system.switch_cpus0.iq.fu_full::SimdShift            0      0.00%     78.77% # attempts to use FU when none available
system.switch_cpus0.iq.fu_full::SimdShiftAcc            0      0.00%     78.77% # attempts to use FU when none available
system.switch_cpus0.iq.fu_full::SimdSqrt            0      0.00%     78.77% # attempts to use FU when none available
system.switch_cpus0.iq.fu_full::SimdFloatAdd            0      0.00%     78.77% # attempts to use FU when none available
system.switch_cpus0.iq.fu_full::SimdFloatAlu            0      0.00%     78.77% # attempts to use FU when none available
system.switch_cpus0.iq.fu_full::SimdFloatCmp            0      0.00%     78.77% # attempts to use FU when none available
system.switch_cpus0.iq.fu_full::SimdFloatCvt            0      0.00%     78.77% # attempts to use FU when none available
system.switch_cpus0.iq.fu_full::SimdFloatDiv            0      0.00%     78.77% # attempts to use FU when none available
system.switch_cpus0.iq.fu_full::SimdFloatMisc            0      0.00%     78.77% # attempts to use FU when none available
system.switch_cpus0.iq.fu_full::SimdFloatMult            0      0.00%     78.77% # attempts to use FU when none available
system.switch_cpus0.iq.fu_full::SimdFloatMultAcc            0      0.00%     78.77% # attempts to use FU when none available
system.switch_cpus0.iq.fu_full::SimdFloatSqrt            0      0.00%     78.77% # attempts to use FU when none available
system.switch_cpus0.iq.fu_full::MemRead         13083     10.92%     89.69% # attempts to use FU when none available
system.switch_cpus0.iq.fu_full::MemWrite        12357     10.31%    100.00% # attempts to use FU when none available
system.switch_cpus0.iq.fu_full::IprAccess            0      0.00%    100.00% # attempts to use FU when none available
system.switch_cpus0.iq.fu_full::InstPrefetch            0      0.00%    100.00% # attempts to use FU when none available
system.switch_cpus0.iq.FU_type_0::No_OpClass            0      0.00%      0.00% # Type of FU issued
system.switch_cpus0.iq.FU_type_0::IntAlu     11619727     84.23%     84.23% # Type of FU issued
system.switch_cpus0.iq.FU_type_0::IntMult       188519      1.37%     85.60% # Type of FU issued
system.switch_cpus0.iq.FU_type_0::IntDiv            0      0.00%     85.60% # Type of FU issued
system.switch_cpus0.iq.FU_type_0::FloatAdd            0      0.00%     85.60% # Type of FU issued
system.switch_cpus0.iq.FU_type_0::FloatCmp            0      0.00%     85.60% # Type of FU issued
system.switch_cpus0.iq.FU_type_0::FloatCvt            0      0.00%     85.60% # Type of FU issued
system.switch_cpus0.iq.FU_type_0::FloatMult            0      0.00%     85.60% # Type of FU issued
system.switch_cpus0.iq.FU_type_0::FloatDiv            0      0.00%     85.60% # Type of FU issued
system.switch_cpus0.iq.FU_type_0::FloatSqrt            0      0.00%     85.60% # Type of FU issued
system.switch_cpus0.iq.FU_type_0::SimdAdd            0      0.00%     85.60% # Type of FU issued
system.switch_cpus0.iq.FU_type_0::SimdAddAcc            0      0.00%     85.60% # Type of FU issued
system.switch_cpus0.iq.FU_type_0::SimdAlu            0      0.00%     85.60% # Type of FU issued
system.switch_cpus0.iq.FU_type_0::SimdCmp            0      0.00%     85.60% # Type of FU issued
system.switch_cpus0.iq.FU_type_0::SimdCvt            0      0.00%     85.60% # Type of FU issued
system.switch_cpus0.iq.FU_type_0::SimdMisc            0      0.00%     85.60% # Type of FU issued
system.switch_cpus0.iq.FU_type_0::SimdMult            0      0.00%     85.60% # Type of FU issued
system.switch_cpus0.iq.FU_type_0::SimdMultAcc            0      0.00%     85.60% # Type of FU issued
system.switch_cpus0.iq.FU_type_0::SimdShift            0      0.00%     85.60% # Type of FU issued
system.switch_cpus0.iq.FU_type_0::SimdShiftAcc            0      0.00%     85.60% # Type of FU issued
system.switch_cpus0.iq.FU_type_0::SimdSqrt            0      0.00%     85.60% # Type of FU issued
system.switch_cpus0.iq.FU_type_0::SimdFloatAdd            0      0.00%     85.60% # Type of FU issued
system.switch_cpus0.iq.FU_type_0::SimdFloatAlu            0      0.00%     85.60% # Type of FU issued
system.switch_cpus0.iq.FU_type_0::SimdFloatCmp            0      0.00%     85.60% # Type of FU issued
system.switch_cpus0.iq.FU_type_0::SimdFloatCvt            0      0.00%     85.60% # Type of FU issued
system.switch_cpus0.iq.FU_type_0::SimdFloatDiv            0      0.00%     85.60% # Type of FU issued
system.switch_cpus0.iq.FU_type_0::SimdFloatMisc         1705      0.01%     85.61% # Type of FU issued
system.switch_cpus0.iq.FU_type_0::SimdFloatMult            0      0.00%     85.61% # Type of FU issued
system.switch_cpus0.iq.FU_type_0::SimdFloatMultAcc            0      0.00%     85.61% # Type of FU issued
system.switch_cpus0.iq.FU_type_0::SimdFloatSqrt            0      0.00%     85.61% # Type of FU issued
system.switch_cpus0.iq.FU_type_0::MemRead      1265369      9.17%     94.79% # Type of FU issued
system.switch_cpus0.iq.FU_type_0::MemWrite       719280      5.21%    100.00% # Type of FU issued
system.switch_cpus0.iq.FU_type_0::IprAccess            0      0.00%    100.00% # Type of FU issued
system.switch_cpus0.iq.FU_type_0::InstPrefetch            0      0.00%    100.00% # Type of FU issued
system.switch_cpus0.iq.FU_type_0::total      13794600                       # Type of FU issued
system.switch_cpus0.iq.rate                  0.567239                       # Inst issue rate
system.switch_cpus0.iq.fu_busy_cnt             119812                       # FU busy when requested
system.switch_cpus0.iq.fu_busy_rate          0.008685                       # FU busy rate (busy events/executed inst)
system.switch_cpus0.iq.int_inst_queue_reads     50432087                       # Number of integer instruction queue reads
system.switch_cpus0.iq.int_inst_queue_writes     16161744                       # Number of integer instruction queue writes
system.switch_cpus0.iq.int_inst_queue_wakeup_accesses     13432035                       # Number of integer instruction queue wakeup accesses
system.switch_cpus0.iq.fp_inst_queue_reads            0                       # Number of floating instruction queue reads
system.switch_cpus0.iq.fp_inst_queue_writes            0                       # Number of floating instruction queue writes
system.switch_cpus0.iq.fp_inst_queue_wakeup_accesses            0                       # Number of floating instruction queue wakeup accesses
system.switch_cpus0.iq.int_alu_accesses      13914412                       # Number of integer alu accesses
system.switch_cpus0.iq.fp_alu_accesses              0                       # Number of floating point alu accesses
system.switch_cpus0.iew.lsq.thread0.forwLoads        10091                       # Number of loads that had data forwarded from stores
system.switch_cpus0.iew.lsq.thread0.invAddrLoads            0                       # Number of loads ignored due to an invalid address
system.switch_cpus0.iew.lsq.thread0.squashedLoads       265842                       # Number of loads squashed
system.switch_cpus0.iew.lsq.thread0.ignoredResponses            2                       # Number of memory responses ignored because the instruction is squashed
system.switch_cpus0.iew.lsq.thread0.memOrderViolation           91                       # Number of memory ordering violations
system.switch_cpus0.iew.lsq.thread0.squashedStores        11584                       # Number of stores squashed
system.switch_cpus0.iew.lsq.thread0.invAddrSwpfs            0                       # Number of software prefetches ignored due to an invalid address
system.switch_cpus0.iew.lsq.thread0.blockedLoads            0                       # Number of blocked loads due to partial load-store forwarding
system.switch_cpus0.iew.lsq.thread0.rescheduledLoads            0                       # Number of loads that were rescheduled
system.switch_cpus0.iew.lsq.thread0.cacheBlocked            0                       # Number of times an access to memory failed due to the cache being blocked
system.switch_cpus0.iew.iewIdleCycles               0                       # Number of cycles IEW is idle
system.switch_cpus0.iew.iewSquashCycles        361081                       # Number of cycles IEW is squashing
system.switch_cpus0.iew.iewBlockCycles          47467                       # Number of cycles IEW is blocking
system.switch_cpus0.iew.iewUnblockCycles         6097                       # Number of cycles IEW is unblocking
system.switch_cpus0.iew.iewDispatchedInsts     14393211                       # Number of instructions dispatched to IQ
system.switch_cpus0.iew.iewDispSquashedInsts        10973                       # Number of squashed instructions skipped by dispatch
system.switch_cpus0.iew.iewDispLoadInsts      1383184                       # Number of dispatched load instructions
system.switch_cpus0.iew.iewDispStoreInsts       721805                       # Number of dispatched store instructions
system.switch_cpus0.iew.iewDispNonSpecInsts         1843                       # Number of dispatched non-speculative instructions
system.switch_cpus0.iew.iewIQFullEvents          5358                       # Number of times the IQ has become full, causing a stall
system.switch_cpus0.iew.iewLSQFullEvents            3                       # Number of times the LSQ has become full, causing a stall
system.switch_cpus0.iew.memOrderViolationEvents           91                       # Number of memory order violations
system.switch_cpus0.iew.predictedTakenIncorrect       118599                       # Number of branches that were predicted taken incorrectly
system.switch_cpus0.iew.predictedNotTakenIncorrect       114918                       # Number of branches that were predicted not taken incorrectly
system.switch_cpus0.iew.branchMispredicts       233517                       # Number of branch mispredicts detected at execute
system.switch_cpus0.iew.iewExecutedInsts     13552390                       # Number of executed instructions
system.switch_cpus0.iew.iewExecLoadInsts      1243937                       # Number of load instructions executed
system.switch_cpus0.iew.iewExecSquashedInsts       242210                       # Number of squashed instructions skipped in execute
system.switch_cpus0.iew.exec_swp                    0                       # number of swp insts executed
system.switch_cpus0.iew.exec_nop                    6                       # number of nop insts executed
system.switch_cpus0.iew.exec_refs             1963114                       # number of memory reference insts executed
system.switch_cpus0.iew.exec_branches         1915893                       # Number of branches executed
system.switch_cpus0.iew.exec_stores            719177                       # Number of stores executed
system.switch_cpus0.iew.exec_rate            0.557280                       # Inst execution rate
system.switch_cpus0.iew.wb_sent              13432131                       # cumulative count of insts sent to commit
system.switch_cpus0.iew.wb_count             13432035                       # cumulative count of insts written-back
system.switch_cpus0.iew.wb_producers          8048135                       # num instructions producing a value
system.switch_cpus0.iew.wb_consumers         21618828                       # num instructions consuming a value
system.switch_cpus0.iew.wb_penalized                0                       # number of instrctions required to write to 'other' IQ
system.switch_cpus0.iew.wb_rate              0.552331                       # insts written-back per cycle
system.switch_cpus0.iew.wb_fanout            0.372274                       # average fanout of values written-back
system.switch_cpus0.iew.wb_penalized_rate            0                       # fraction of instructions written-back that wrote to 'other' IQ
system.switch_cpus0.commit.commitCommittedInsts     10000003                       # The number of committed instructions
system.switch_cpus0.commit.commitCommittedOps     12322356                       # The number of committed instructions
system.switch_cpus0.commit.commitSquashedInsts      2070906                       # The number of squashed insts skipped by commit
system.switch_cpus0.commit.commitNonSpecStalls         3445                       # The number of times commit has been forced to stall to communicate backwards
system.switch_cpus0.commit.branchMispredicts       203943                       # The number of times a branch was mispredicted
system.switch_cpus0.commit.committed_per_cycle::samples     22348274                       # Number of insts commited each cycle
system.switch_cpus0.commit.committed_per_cycle::mean     0.551378                       # Number of insts commited each cycle
system.switch_cpus0.commit.committed_per_cycle::stdev     1.371619                       # Number of insts commited each cycle
system.switch_cpus0.commit.committed_per_cycle::underflows            0      0.00%      0.00% # Number of insts commited each cycle
system.switch_cpus0.commit.committed_per_cycle::0     17131086     76.66%     76.66% # Number of insts commited each cycle
system.switch_cpus0.commit.committed_per_cycle::1      2645074     11.84%     88.49% # Number of insts commited each cycle
system.switch_cpus0.commit.committed_per_cycle::2       960116      4.30%     92.79% # Number of insts commited each cycle
system.switch_cpus0.commit.committed_per_cycle::3       478038      2.14%     94.93% # Number of insts commited each cycle
system.switch_cpus0.commit.committed_per_cycle::4       437082      1.96%     96.88% # Number of insts commited each cycle
system.switch_cpus0.commit.committed_per_cycle::5       183328      0.82%     97.70% # Number of insts commited each cycle
system.switch_cpus0.commit.committed_per_cycle::6       181929      0.81%     98.52% # Number of insts commited each cycle
system.switch_cpus0.commit.committed_per_cycle::7        86574      0.39%     98.90% # Number of insts commited each cycle
system.switch_cpus0.commit.committed_per_cycle::8       245047      1.10%    100.00% # Number of insts commited each cycle
system.switch_cpus0.commit.committed_per_cycle::overflows            0      0.00%    100.00% # Number of insts commited each cycle
system.switch_cpus0.commit.committed_per_cycle::min_value            0                       # Number of insts commited each cycle
system.switch_cpus0.commit.committed_per_cycle::max_value            8                       # Number of insts commited each cycle
system.switch_cpus0.commit.committed_per_cycle::total     22348274                       # Number of insts commited each cycle
system.switch_cpus0.commit.committedInsts     10000003                       # Number of instructions committed
system.switch_cpus0.commit.committedOps      12322356                       # Number of ops (including micro ops) committed
system.switch_cpus0.commit.swp_count                0                       # Number of s/w prefetches committed
system.switch_cpus0.commit.refs               1827560                       # Number of memory references committed
system.switch_cpus0.commit.loads              1117339                       # Number of loads committed
system.switch_cpus0.commit.membars               1718                       # Number of memory barriers committed
system.switch_cpus0.commit.branches           1785946                       # Number of branches committed
system.switch_cpus0.commit.fp_insts                 0                       # Number of committed floating point instructions.
system.switch_cpus0.commit.int_insts         11094269                       # Number of committed integer instructions.
system.switch_cpus0.commit.function_calls       254460                       # Number of function calls committed.
system.switch_cpus0.commit.bw_lim_events       245047                       # number cycles where commit BW limit reached
system.switch_cpus0.commit.bw_limited               0                       # number of insts not committed due to BW limits
system.switch_cpus0.rob.rob_reads            36496411                       # The number of ROB reads
system.switch_cpus0.rob.rob_writes           29147629                       # The number of ROB writes
system.switch_cpus0.timesIdled                 293687                       # Number of times that the entire CPU went into an idle state and unscheduled itself
system.switch_cpus0.idleCycles                1609474                       # Total number of cycles that the CPU has spent unscheduled due to idling
system.switch_cpus0.committedInsts           10000003                       # Number of Instructions Simulated
system.switch_cpus0.committedOps             12322356                       # Number of Ops (including micro ops) Simulated
system.switch_cpus0.committedInsts_total     10000003                       # Number of Instructions Simulated
system.switch_cpus0.cpi                      2.431882                       # CPI: Cycles Per Instruction
system.switch_cpus0.cpi_total                2.431882                       # CPI: Total CPI of All Threads
system.switch_cpus0.ipc                      0.411204                       # IPC: Instructions Per Cycle
system.switch_cpus0.ipc_total                0.411204                       # IPC: Total IPC of All Threads
system.switch_cpus0.int_regfile_reads        60975046                       # number of integer regfile reads
system.switch_cpus0.int_regfile_writes       18767670                       # number of integer regfile writes
system.switch_cpus0.misc_regfile_reads       13715772                       # number of misc regfile reads
system.switch_cpus0.misc_regfile_writes          3442                       # number of misc regfile writes
system.switch_cpus1.dtb.inst_hits                   0                       # ITB inst hits
system.switch_cpus1.dtb.inst_misses                 0                       # ITB inst misses
system.switch_cpus1.dtb.read_hits                   0                       # DTB read hits
system.switch_cpus1.dtb.read_misses                 0                       # DTB read misses
system.switch_cpus1.dtb.write_hits                  0                       # DTB write hits
system.switch_cpus1.dtb.write_misses                0                       # DTB write misses
system.switch_cpus1.dtb.flush_tlb                   0                       # Number of times complete TLB was flushed
system.switch_cpus1.dtb.flush_tlb_mva               0                       # Number of times TLB was flushed by MVA
system.switch_cpus1.dtb.flush_tlb_mva_asid            0                       # Number of times TLB was flushed by MVA & ASID
system.switch_cpus1.dtb.flush_tlb_asid              0                       # Number of times TLB was flushed by ASID
system.switch_cpus1.dtb.flush_entries               0                       # Number of entries that have been flushed from TLB
system.switch_cpus1.dtb.align_faults                0                       # Number of TLB faults due to alignment restrictions
system.switch_cpus1.dtb.prefetch_faults             0                       # Number of TLB faults due to prefetch
system.switch_cpus1.dtb.domain_faults               0                       # Number of TLB faults due to domain restrictions
system.switch_cpus1.dtb.perms_faults                0                       # Number of TLB faults due to permissions restrictions
system.switch_cpus1.dtb.read_accesses               0                       # DTB read accesses
system.switch_cpus1.dtb.write_accesses              0                       # DTB write accesses
system.switch_cpus1.dtb.inst_accesses               0                       # ITB inst accesses
system.switch_cpus1.dtb.hits                        0                       # DTB hits
system.switch_cpus1.dtb.misses                      0                       # DTB misses
system.switch_cpus1.dtb.accesses                    0                       # DTB accesses
system.switch_cpus1.itb.inst_hits                   0                       # ITB inst hits
system.switch_cpus1.itb.inst_misses                 0                       # ITB inst misses
system.switch_cpus1.itb.read_hits                   0                       # DTB read hits
system.switch_cpus1.itb.read_misses                 0                       # DTB read misses
system.switch_cpus1.itb.write_hits                  0                       # DTB write hits
system.switch_cpus1.itb.write_misses                0                       # DTB write misses
system.switch_cpus1.itb.flush_tlb                   0                       # Number of times complete TLB was flushed
system.switch_cpus1.itb.flush_tlb_mva               0                       # Number of times TLB was flushed by MVA
system.switch_cpus1.itb.flush_tlb_mva_asid            0                       # Number of times TLB was flushed by MVA & ASID
system.switch_cpus1.itb.flush_tlb_asid              0                       # Number of times TLB was flushed by ASID
system.switch_cpus1.itb.flush_entries               0                       # Number of entries that have been flushed from TLB
system.switch_cpus1.itb.align_faults                0                       # Number of TLB faults due to alignment restrictions
system.switch_cpus1.itb.prefetch_faults             0                       # Number of TLB faults due to prefetch
system.switch_cpus1.itb.domain_faults               0                       # Number of TLB faults due to domain restrictions
system.switch_cpus1.itb.perms_faults                0                       # Number of TLB faults due to permissions restrictions
system.switch_cpus1.itb.read_accesses               0                       # DTB read accesses
system.switch_cpus1.itb.write_accesses              0                       # DTB write accesses
system.switch_cpus1.itb.inst_accesses               0                       # ITB inst accesses
system.switch_cpus1.itb.hits                        0                       # DTB hits
system.switch_cpus1.itb.misses                      0                       # DTB misses
system.switch_cpus1.itb.accesses                    0                       # DTB accesses
system.cpu1.workload.num_syscalls                   5                       # Number of system calls
system.switch_cpus1.numCycles                24318829                       # number of cpu cycles simulated
system.switch_cpus1.numWorkItemsStarted             0                       # number of work items this cpu started
system.switch_cpus1.numWorkItemsCompleted            0                       # number of work items this cpu completed
system.switch_cpus1.BPredUnit.lookups         1982386                       # Number of BP lookups
system.switch_cpus1.BPredUnit.condPredicted      1620954                       # Number of conditional branches predicted
system.switch_cpus1.BPredUnit.condIncorrect       196073                       # Number of conditional branches incorrect
system.switch_cpus1.BPredUnit.BTBLookups       842980                       # Number of BTB lookups
system.switch_cpus1.BPredUnit.BTBHits          782031                       # Number of BTB hits
system.switch_cpus1.BPredUnit.BTBCorrect            0                       # Number of correct BTB predictions (this stat may not work properly.
system.switch_cpus1.BPredUnit.usedRAS          203536                       # Number of times the RAS was used to get a target.
system.switch_cpus1.BPredUnit.RASInCorrect         8781                       # Number of incorrect RAS predictions.
system.switch_cpus1.fetch.icacheStallCycles     19253691                       # Number of cycles fetch is stalled on an Icache miss
system.switch_cpus1.fetch.Insts              11244761                       # Number of instructions fetch has processed
system.switch_cpus1.fetch.Branches            1982386                       # Number of branches that fetch encountered
system.switch_cpus1.fetch.predictedBranches       985567                       # Number of branches that fetch has predicted taken
system.switch_cpus1.fetch.Cycles              2356366                       # Number of cycles fetch has run and was not squashing or blocked
system.switch_cpus1.fetch.SquashCycles         567517                       # Number of cycles fetch has spent squashing
system.switch_cpus1.fetch.BlockedCycles        326291                       # Number of cycles fetch has spent blocked
system.switch_cpus1.fetch.PendingTrapStallCycles           26                       # Number of stall cycles due to pending traps
system.switch_cpus1.fetch.CacheLines          1185773                       # Number of cache lines fetched
system.switch_cpus1.fetch.IcacheSquashes       197475                       # Number of outstanding Icache misses that were squashed
system.switch_cpus1.fetch.rateDist::samples     22303537                       # Number of instructions fetched each cycle (Total)
system.switch_cpus1.fetch.rateDist::mean     0.616188                       # Number of instructions fetched each cycle (Total)
system.switch_cpus1.fetch.rateDist::stdev     1.967584                       # Number of instructions fetched each cycle (Total)
system.switch_cpus1.fetch.rateDist::underflows            0      0.00%      0.00% # Number of instructions fetched each cycle (Total)
system.switch_cpus1.fetch.rateDist::0        19947171     89.44%     89.44% # Number of instructions fetched each cycle (Total)
system.switch_cpus1.fetch.rateDist::1          127766      0.57%     90.01% # Number of instructions fetched each cycle (Total)
system.switch_cpus1.fetch.rateDist::2          201456      0.90%     90.91% # Number of instructions fetched each cycle (Total)
system.switch_cpus1.fetch.rateDist::3          319228      1.43%     92.34% # Number of instructions fetched each cycle (Total)
system.switch_cpus1.fetch.rateDist::4          133946      0.60%     92.94% # Number of instructions fetched each cycle (Total)
system.switch_cpus1.fetch.rateDist::5          150742      0.68%     93.62% # Number of instructions fetched each cycle (Total)
system.switch_cpus1.fetch.rateDist::6          158286      0.71%     94.33% # Number of instructions fetched each cycle (Total)
system.switch_cpus1.fetch.rateDist::7          103930      0.47%     94.79% # Number of instructions fetched each cycle (Total)
system.switch_cpus1.fetch.rateDist::8         1161012      5.21%    100.00% # Number of instructions fetched each cycle (Total)
system.switch_cpus1.fetch.rateDist::overflows            0      0.00%    100.00% # Number of instructions fetched each cycle (Total)
system.switch_cpus1.fetch.rateDist::min_value            0                       # Number of instructions fetched each cycle (Total)
system.switch_cpus1.fetch.rateDist::max_value            8                       # Number of instructions fetched each cycle (Total)
system.switch_cpus1.fetch.rateDist::total     22303537                       # Number of instructions fetched each cycle (Total)
system.switch_cpus1.fetch.branchRate         0.081517                       # Number of branch fetches per cycle
system.switch_cpus1.fetch.rate               0.462389                       # Number of inst fetches per cycle
system.switch_cpus1.decode.IdleCycles        19082789                       # Number of cycles decode is idle
system.switch_cpus1.decode.BlockedCycles       498988                       # Number of cycles decode is blocked
system.switch_cpus1.decode.RunCycles          2348763                       # Number of cycles decode is running
system.switch_cpus1.decode.UnblockCycles         6105                       # Number of cycles decode is unblocking
system.switch_cpus1.decode.SquashCycles        366890                       # Number of cycles decode is squashing
system.switch_cpus1.decode.BranchResolved       325151                       # Number of times decode resolved a branch
system.switch_cpus1.decode.BranchMispred          274                       # Number of times decode detected a branch misprediction
system.switch_cpus1.decode.DecodedInsts      13732050                       # Number of instructions handled by decode
system.switch_cpus1.decode.SquashedInsts         1630                       # Number of squashed instructions handled by decode
system.switch_cpus1.rename.SquashCycles        366890                       # Number of cycles rename is squashing
system.switch_cpus1.rename.IdleCycles        19111052                       # Number of cycles rename is idle
system.switch_cpus1.rename.BlockCycles         158559                       # Number of cycles rename is blocking
system.switch_cpus1.rename.serializeStallCycles       259752                       # count of cycles rename stalled for serializing inst
system.switch_cpus1.rename.RunCycles          2326971                       # Number of cycles rename is running
system.switch_cpus1.rename.UnblockCycles        80311                       # Number of cycles rename is unblocking
system.switch_cpus1.rename.RenamedInsts      13723302                       # Number of instructions processed by rename
system.switch_cpus1.rename.ROBFullEvents         1441                       # Number of times rename has blocked due to ROB full
system.switch_cpus1.rename.IQFullEvents         23660                       # Number of times rename has blocked due to IQ full
system.switch_cpus1.rename.LSQFullEvents        30308                       # Number of times rename has blocked due to LSQ full
system.switch_cpus1.rename.FullRegisterEvents         2693                       # Number of times there has been no free registers
system.switch_cpus1.rename.RenamedOperands     19049081                       # Number of destination operands rename has renamed
system.switch_cpus1.rename.RenameLookups     63833087                       # Number of register rename lookups that rename has made
system.switch_cpus1.rename.int_rename_lookups     63833087                       # Number of integer rename lookups
system.switch_cpus1.rename.CommittedMaps     16247684                       # Number of HB maps that are committed
system.switch_cpus1.rename.UndoneMaps         2801394                       # Number of HB maps that are undone due to squashing
system.switch_cpus1.rename.serializingInsts         3437                       # count of serializing insts renamed
system.switch_cpus1.rename.tempSerializingInsts         1865                       # count of temporary serializing insts renamed
system.switch_cpus1.rename.skidInsts           247236                       # count of insts added to the skid buffer
system.switch_cpus1.memDep0.insertedLoads      1310545                       # Number of loads inserted to the mem dependence unit.
system.switch_cpus1.memDep0.insertedStores       703336                       # Number of stores inserted to the mem dependence unit.
system.switch_cpus1.memDep0.conflictingLoads        21185                       # Number of conflicting loads.
system.switch_cpus1.memDep0.conflictingStores       160078                       # Number of conflicting stores.
system.switch_cpus1.iq.iqInstsAdded          13703237                       # Number of instructions added to the IQ (excludes non-spec)
system.switch_cpus1.iq.iqNonSpecInstsAdded         3449                       # Number of non-speculative instructions added to the IQ
system.switch_cpus1.iq.iqInstsIssued         12964869                       # Number of instructions issued
system.switch_cpus1.iq.iqSquashedInstsIssued        16453                       # Number of squashed instructions issued
system.switch_cpus1.iq.iqSquashedInstsExamined      1749471                       # Number of squashed instructions iterated over during squash; mainly for profiling
system.switch_cpus1.iq.iqSquashedOperandsExamined      3893152                       # Number of squashed operands that are examined and possibly removed from graph
system.switch_cpus1.iq.iqSquashedNonSpecRemoved          279                       # Number of squashed non-spec instructions that were removed
system.switch_cpus1.iq.issued_per_cycle::samples     22303537                       # Number of insts issued each cycle
system.switch_cpus1.iq.issued_per_cycle::mean     0.581292                       # Number of insts issued each cycle
system.switch_cpus1.iq.issued_per_cycle::stdev     1.273217                       # Number of insts issued each cycle
system.switch_cpus1.iq.issued_per_cycle::underflows            0      0.00%      0.00% # Number of insts issued each cycle
system.switch_cpus1.iq.issued_per_cycle::0     16837275     75.49%     75.49% # Number of insts issued each cycle
system.switch_cpus1.iq.issued_per_cycle::1      2193358      9.83%     85.33% # Number of insts issued each cycle
system.switch_cpus1.iq.issued_per_cycle::2      1200256      5.38%     90.71% # Number of insts issued each cycle
system.switch_cpus1.iq.issued_per_cycle::3       818154      3.67%     94.38% # Number of insts issued each cycle
system.switch_cpus1.iq.issued_per_cycle::4       764456      3.43%     97.80% # Number of insts issued each cycle
system.switch_cpus1.iq.issued_per_cycle::5       220472      0.99%     98.79% # Number of insts issued each cycle
system.switch_cpus1.iq.issued_per_cycle::6       170892      0.77%     99.56% # Number of insts issued each cycle
system.switch_cpus1.iq.issued_per_cycle::7        58391      0.26%     99.82% # Number of insts issued each cycle
system.switch_cpus1.iq.issued_per_cycle::8        40283      0.18%    100.00% # Number of insts issued each cycle
system.switch_cpus1.iq.issued_per_cycle::overflows            0      0.00%    100.00% # Number of insts issued each cycle
system.switch_cpus1.iq.issued_per_cycle::min_value            0                       # Number of insts issued each cycle
system.switch_cpus1.iq.issued_per_cycle::max_value            8                       # Number of insts issued each cycle
system.switch_cpus1.iq.issued_per_cycle::total     22303537                       # Number of insts issued each cycle
system.switch_cpus1.iq.fu_full::No_OpClass            0      0.00%      0.00% # attempts to use FU when none available
system.switch_cpus1.iq.fu_full::IntAlu           3096     12.68%     12.68% # attempts to use FU when none available
system.switch_cpus1.iq.fu_full::IntMult             0      0.00%     12.68% # attempts to use FU when none available
system.switch_cpus1.iq.fu_full::IntDiv              0      0.00%     12.68% # attempts to use FU when none available
system.switch_cpus1.iq.fu_full::FloatAdd            0      0.00%     12.68% # attempts to use FU when none available
system.switch_cpus1.iq.fu_full::FloatCmp            0      0.00%     12.68% # attempts to use FU when none available
system.switch_cpus1.iq.fu_full::FloatCvt            0      0.00%     12.68% # attempts to use FU when none available
system.switch_cpus1.iq.fu_full::FloatMult            0      0.00%     12.68% # attempts to use FU when none available
system.switch_cpus1.iq.fu_full::FloatDiv            0      0.00%     12.68% # attempts to use FU when none available
system.switch_cpus1.iq.fu_full::FloatSqrt            0      0.00%     12.68% # attempts to use FU when none available
system.switch_cpus1.iq.fu_full::SimdAdd             0      0.00%     12.68% # attempts to use FU when none available
system.switch_cpus1.iq.fu_full::SimdAddAcc            0      0.00%     12.68% # attempts to use FU when none available
system.switch_cpus1.iq.fu_full::SimdAlu             0      0.00%     12.68% # attempts to use FU when none available
system.switch_cpus1.iq.fu_full::SimdCmp             0      0.00%     12.68% # attempts to use FU when none available
system.switch_cpus1.iq.fu_full::SimdCvt             0      0.00%     12.68% # attempts to use FU when none available
system.switch_cpus1.iq.fu_full::SimdMisc            0      0.00%     12.68% # attempts to use FU when none available
system.switch_cpus1.iq.fu_full::SimdMult            0      0.00%     12.68% # attempts to use FU when none available
system.switch_cpus1.iq.fu_full::SimdMultAcc            0      0.00%     12.68% # attempts to use FU when none available
system.switch_cpus1.iq.fu_full::SimdShift            0      0.00%     12.68% # attempts to use FU when none available
system.switch_cpus1.iq.fu_full::SimdShiftAcc            0      0.00%     12.68% # attempts to use FU when none available
system.switch_cpus1.iq.fu_full::SimdSqrt            0      0.00%     12.68% # attempts to use FU when none available
system.switch_cpus1.iq.fu_full::SimdFloatAdd            0      0.00%     12.68% # attempts to use FU when none available
system.switch_cpus1.iq.fu_full::SimdFloatAlu            0      0.00%     12.68% # attempts to use FU when none available
system.switch_cpus1.iq.fu_full::SimdFloatCmp            0      0.00%     12.68% # attempts to use FU when none available
system.switch_cpus1.iq.fu_full::SimdFloatCvt            0      0.00%     12.68% # attempts to use FU when none available
system.switch_cpus1.iq.fu_full::SimdFloatDiv            0      0.00%     12.68% # attempts to use FU when none available
system.switch_cpus1.iq.fu_full::SimdFloatMisc            0      0.00%     12.68% # attempts to use FU when none available
system.switch_cpus1.iq.fu_full::SimdFloatMult            0      0.00%     12.68% # attempts to use FU when none available
system.switch_cpus1.iq.fu_full::SimdFloatMultAcc            0      0.00%     12.68% # attempts to use FU when none available
system.switch_cpus1.iq.fu_full::SimdFloatSqrt            0      0.00%     12.68% # attempts to use FU when none available
system.switch_cpus1.iq.fu_full::MemRead          9425     38.61%     51.29% # attempts to use FU when none available
system.switch_cpus1.iq.fu_full::MemWrite        11889     48.71%    100.00% # attempts to use FU when none available
system.switch_cpus1.iq.fu_full::IprAccess            0      0.00%    100.00% # attempts to use FU when none available
system.switch_cpus1.iq.fu_full::InstPrefetch            0      0.00%    100.00% # attempts to use FU when none available
system.switch_cpus1.iq.FU_type_0::No_OpClass            0      0.00%      0.00% # Type of FU issued
system.switch_cpus1.iq.FU_type_0::IntAlu     10860574     83.77%     83.77% # Type of FU issued
system.switch_cpus1.iq.FU_type_0::IntMult       204716      1.58%     85.35% # Type of FU issued
system.switch_cpus1.iq.FU_type_0::IntDiv            0      0.00%     85.35% # Type of FU issued
system.switch_cpus1.iq.FU_type_0::FloatAdd            0      0.00%     85.35% # Type of FU issued
system.switch_cpus1.iq.FU_type_0::FloatCmp            0      0.00%     85.35% # Type of FU issued
system.switch_cpus1.iq.FU_type_0::FloatCvt            0      0.00%     85.35% # Type of FU issued
system.switch_cpus1.iq.FU_type_0::FloatMult            0      0.00%     85.35% # Type of FU issued
system.switch_cpus1.iq.FU_type_0::FloatDiv            0      0.00%     85.35% # Type of FU issued
system.switch_cpus1.iq.FU_type_0::FloatSqrt            0      0.00%     85.35% # Type of FU issued
system.switch_cpus1.iq.FU_type_0::SimdAdd            0      0.00%     85.35% # Type of FU issued
system.switch_cpus1.iq.FU_type_0::SimdAddAcc            0      0.00%     85.35% # Type of FU issued
system.switch_cpus1.iq.FU_type_0::SimdAlu            0      0.00%     85.35% # Type of FU issued
[...]
system.cpu7.icache.ReadReq_avg_miss_latency::total 152589.735849                       # average ReadReq miss latency
system.cpu7.icache.demand_avg_miss_latency::switch_cpus7.inst 152589.735849                       # average overall miss latency
system.cpu7.icache.demand_avg_miss_latency::total 152589.735849                       # average overall miss latency
system.cpu7.icache.overall_avg_miss_latency::switch_cpus7.inst 152589.735849                       # average overall miss latency
system.cpu7.icache.overall_avg_miss_latency::total 152589.735849                       # average overall miss latency
system.cpu7.icache.blocked_cycles::no_mshrs            0                       # number of cycles access was blocked
system.cpu7.icache.blocked_cycles::no_targets            0                       # number of cycles access was blocked
system.cpu7.icache.blocked::no_mshrs                0                       # number of cycles access was blocked
system.cpu7.icache.blocked::no_targets              0                       # number of cycles access was blocked
system.cpu7.icache.avg_blocked_cycles::no_mshrs          nan                       # average number of cycles each access was blocked
system.cpu7.icache.avg_blocked_cycles::no_targets          nan                       # average number of cycles each access was blocked
system.cpu7.icache.fast_writes                      0                       # number of fast writes performed
system.cpu7.icache.cache_copies                     0                       # number of cache copies performed
system.cpu7.icache.ReadReq_mshr_hits::switch_cpus7.inst           13                       # number of ReadReq MSHR hits
system.cpu7.icache.ReadReq_mshr_hits::total           13                       # number of ReadReq MSHR hits
system.cpu7.icache.demand_mshr_hits::switch_cpus7.inst           13                       # number of demand (read+write) MSHR hits
system.cpu7.icache.demand_mshr_hits::total           13                       # number of demand (read+write) MSHR hits
system.cpu7.icache.overall_mshr_hits::switch_cpus7.inst           13                       # number of overall MSHR hits
system.cpu7.icache.overall_mshr_hits::total           13                       # number of overall MSHR hits
system.cpu7.icache.ReadReq_mshr_misses::switch_cpus7.inst           40                       # number of ReadReq MSHR misses
system.cpu7.icache.ReadReq_mshr_misses::total           40                       # number of ReadReq MSHR misses
system.cpu7.icache.demand_mshr_misses::switch_cpus7.inst           40                       # number of demand (read+write) MSHR misses
system.cpu7.icache.demand_mshr_misses::total           40                       # number of demand (read+write) MSHR misses
system.cpu7.icache.overall_mshr_misses::switch_cpus7.inst           40                       # number of overall MSHR misses
system.cpu7.icache.overall_mshr_misses::total           40                       # number of overall MSHR misses
system.cpu7.icache.ReadReq_mshr_miss_latency::switch_cpus7.inst      6311180                       # number of ReadReq MSHR miss cycles
system.cpu7.icache.ReadReq_mshr_miss_latency::total      6311180                       # number of ReadReq MSHR miss cycles
system.cpu7.icache.demand_mshr_miss_latency::switch_cpus7.inst      6311180                       # number of demand (read+write) MSHR miss cycles
system.cpu7.icache.demand_mshr_miss_latency::total      6311180                       # number of demand (read+write) MSHR miss cycles
system.cpu7.icache.overall_mshr_miss_latency::switch_cpus7.inst      6311180                       # number of overall MSHR miss cycles
system.cpu7.icache.overall_mshr_miss_latency::total      6311180                       # number of overall MSHR miss cycles
system.cpu7.icache.ReadReq_mshr_miss_rate::switch_cpus7.inst     0.000033                       # mshr miss rate for ReadReq accesses
system.cpu7.icache.ReadReq_mshr_miss_rate::total     0.000033                       # mshr miss rate for ReadReq accesses
system.cpu7.icache.demand_mshr_miss_rate::switch_cpus7.inst     0.000033                       # mshr miss rate for demand accesses
system.cpu7.icache.demand_mshr_miss_rate::total     0.000033                       # mshr miss rate for demand accesses
system.cpu7.icache.overall_mshr_miss_rate::switch_cpus7.inst     0.000033                       # mshr miss rate for overall accesses
system.cpu7.icache.overall_mshr_miss_rate::total     0.000033                       # mshr miss rate for overall accesses
system.cpu7.icache.ReadReq_avg_mshr_miss_latency::switch_cpus7.inst 157779.500000                       # average ReadReq mshr miss latency
system.cpu7.icache.ReadReq_avg_mshr_miss_latency::total 157779.500000                       # average ReadReq mshr miss latency
system.cpu7.icache.demand_avg_mshr_miss_latency::switch_cpus7.inst 157779.500000                       # average overall mshr miss latency
system.cpu7.icache.demand_avg_mshr_miss_latency::total 157779.500000                       # average overall mshr miss latency
system.cpu7.icache.overall_avg_mshr_miss_latency::switch_cpus7.inst 157779.500000                       # average overall mshr miss latency
system.cpu7.icache.overall_avg_mshr_miss_latency::total 157779.500000                       # average overall mshr miss latency
system.cpu7.icache.no_allocate_misses               0                       # Number of misses that were no-allocate
system.cpu7.dcache.replacements                  3627                       # number of replacements
system.cpu7.dcache.tagsinuse                      256                       # Cycle average of tags in use
system.cpu7.dcache.total_refs               148428317                       # Total number of references to valid blocks.
system.cpu7.dcache.sampled_refs                  3883                       # Sample count of references to valid blocks.
system.cpu7.dcache.avg_refs              38225.165336                       # Average number of references to valid blocks.
system.cpu7.dcache.warmup_cycle                     0                       # Cycle when the warmup percentage was hit.
system.cpu7.dcache.occ_blocks::switch_cpus7.data   220.282697                       # Average occupied blocks per requestor
system.cpu7.dcache.occ_blocks::cpu7.data    35.717303                       # Average occupied blocks per requestor
system.cpu7.dcache.occ_percent::switch_cpus7.data     0.860479                       # Average percentage of cache occupancy
system.cpu7.dcache.occ_percent::cpu7.data     0.139521                       # Average percentage of cache occupancy
system.cpu7.dcache.occ_percent::total               1                       # Average percentage of cache occupancy
system.cpu7.dcache.ReadReq_hits::switch_cpus7.data       952433                       # number of ReadReq hits
system.cpu7.dcache.ReadReq_hits::total         952433                       # number of ReadReq hits
system.cpu7.dcache.WriteReq_hits::switch_cpus7.data       705942                       # number of WriteReq hits
system.cpu7.dcache.WriteReq_hits::total        705942                       # number of WriteReq hits
system.cpu7.dcache.LoadLockedReq_hits::switch_cpus7.data         1828                       # number of LoadLockedReq hits
system.cpu7.dcache.LoadLockedReq_hits::total         1828                       # number of LoadLockedReq hits
system.cpu7.dcache.StoreCondReq_hits::switch_cpus7.data         1719                       # number of StoreCondReq hits
system.cpu7.dcache.StoreCondReq_hits::total         1719                       # number of StoreCondReq hits
system.cpu7.dcache.demand_hits::switch_cpus7.data      1658375                       # number of demand (read+write) hits
system.cpu7.dcache.demand_hits::total         1658375                       # number of demand (read+write) hits
system.cpu7.dcache.overall_hits::switch_cpus7.data      1658375                       # number of overall hits
system.cpu7.dcache.overall_hits::total        1658375                       # number of overall hits
system.cpu7.dcache.ReadReq_misses::switch_cpus7.data         9230                       # number of ReadReq misses
system.cpu7.dcache.ReadReq_misses::total         9230                       # number of ReadReq misses
system.cpu7.dcache.WriteReq_misses::switch_cpus7.data           76                       # number of WriteReq misses
system.cpu7.dcache.WriteReq_misses::total           76                       # number of WriteReq misses
system.cpu7.dcache.demand_misses::switch_cpus7.data         9306                       # number of demand (read+write) misses
system.cpu7.dcache.demand_misses::total          9306                       # number of demand (read+write) misses
system.cpu7.dcache.overall_misses::switch_cpus7.data         9306                       # number of overall misses
system.cpu7.dcache.overall_misses::total         9306                       # number of overall misses
system.cpu7.dcache.ReadReq_miss_latency::switch_cpus7.data    891262504                       # number of ReadReq miss cycles
system.cpu7.dcache.ReadReq_miss_latency::total    891262504                       # number of ReadReq miss cycles
system.cpu7.dcache.WriteReq_miss_latency::switch_cpus7.data      7287236                       # number of WriteReq miss cycles
system.cpu7.dcache.WriteReq_miss_latency::total      7287236                       # number of WriteReq miss cycles
system.cpu7.dcache.demand_miss_latency::switch_cpus7.data    898549740                       # number of demand (read+write) miss cycles
system.cpu7.dcache.demand_miss_latency::total    898549740                       # number of demand (read+write) miss cycles
system.cpu7.dcache.overall_miss_latency::switch_cpus7.data    898549740                       # number of overall miss cycles
system.cpu7.dcache.overall_miss_latency::total    898549740                       # number of overall miss cycles
system.cpu7.dcache.ReadReq_accesses::switch_cpus7.data       961663                       # number of ReadReq accesses(hits+misses)
system.cpu7.dcache.ReadReq_accesses::total       961663                       # number of ReadReq accesses(hits+misses)
system.cpu7.dcache.WriteReq_accesses::switch_cpus7.data       706018                       # number of WriteReq accesses(hits+misses)
system.cpu7.dcache.WriteReq_accesses::total       706018                       # number of WriteReq accesses(hits+misses)
system.cpu7.dcache.LoadLockedReq_accesses::switch_cpus7.data         1828                       # number of LoadLockedReq accesses(hits+misses)
system.cpu7.dcache.LoadLockedReq_accesses::total         1828                       # number of LoadLockedReq accesses(hits+misses)
system.cpu7.dcache.StoreCondReq_accesses::switch_cpus7.data         1719                       # number of StoreCondReq accesses(hits+misses)
system.cpu7.dcache.StoreCondReq_accesses::total         1719                       # number of StoreCondReq accesses(hits+misses)
system.cpu7.dcache.demand_accesses::switch_cpus7.data      1667681                       # number of demand (read+write) accesses
system.cpu7.dcache.demand_accesses::total      1667681                       # number of demand (read+write) accesses
system.cpu7.dcache.overall_accesses::switch_cpus7.data      1667681                       # number of overall (read+write) accesses
system.cpu7.dcache.overall_accesses::total      1667681                       # number of overall (read+write) accesses
system.cpu7.dcache.ReadReq_miss_rate::switch_cpus7.data     0.009598                       # miss rate for ReadReq accesses
system.cpu7.dcache.ReadReq_miss_rate::total     0.009598                       # miss rate for ReadReq accesses
system.cpu7.dcache.WriteReq_miss_rate::switch_cpus7.data     0.000108                       # miss rate for WriteReq accesses
system.cpu7.dcache.WriteReq_miss_rate::total     0.000108                       # miss rate for WriteReq accesses
system.cpu7.dcache.demand_miss_rate::switch_cpus7.data     0.005580                       # miss rate for demand accesses
system.cpu7.dcache.demand_miss_rate::total     0.005580                       # miss rate for demand accesses
system.cpu7.dcache.overall_miss_rate::switch_cpus7.data     0.005580                       # miss rate for overall accesses
system.cpu7.dcache.overall_miss_rate::total     0.005580                       # miss rate for overall accesses
system.cpu7.dcache.ReadReq_avg_miss_latency::switch_cpus7.data 96561.484724                       # average ReadReq miss latency
system.cpu7.dcache.ReadReq_avg_miss_latency::total 96561.484724                       # average ReadReq miss latency
system.cpu7.dcache.WriteReq_avg_miss_latency::switch_cpus7.data 95884.684211                       # average WriteReq miss latency
system.cpu7.dcache.WriteReq_avg_miss_latency::total 95884.684211                       # average WriteReq miss latency
system.cpu7.dcache.demand_avg_miss_latency::switch_cpus7.data 96555.957447                       # average overall miss latency
system.cpu7.dcache.demand_avg_miss_latency::total 96555.957447                       # average overall miss latency
system.cpu7.dcache.overall_avg_miss_latency::switch_cpus7.data 96555.957447                       # average overall miss latency
system.cpu7.dcache.overall_avg_miss_latency::total 96555.957447                       # average overall miss latency
system.cpu7.dcache.blocked_cycles::no_mshrs            0                       # number of cycles access was blocked
system.cpu7.dcache.blocked_cycles::no_targets            0                       # number of cycles access was blocked
system.cpu7.dcache.blocked::no_mshrs                0                       # number of cycles access was blocked
system.cpu7.dcache.blocked::no_targets              0                       # number of cycles access was blocked
system.cpu7.dcache.avg_blocked_cycles::no_mshrs          nan                       # average number of cycles each access was blocked
system.cpu7.dcache.avg_blocked_cycles::no_targets          nan                       # average number of cycles each access was blocked
system.cpu7.dcache.fast_writes                      0                       # number of fast writes performed
system.cpu7.dcache.cache_copies                     0                       # number of cache copies performed
system.cpu7.dcache.writebacks::writebacks          850                       # number of writebacks
system.cpu7.dcache.writebacks::total              850                       # number of writebacks
system.cpu7.dcache.ReadReq_mshr_hits::switch_cpus7.data         5618                       # number of ReadReq MSHR hits
system.cpu7.dcache.ReadReq_mshr_hits::total         5618                       # number of ReadReq MSHR hits
system.cpu7.dcache.WriteReq_mshr_hits::switch_cpus7.data           61                       # number of WriteReq MSHR hits
system.cpu7.dcache.WriteReq_mshr_hits::total           61                       # number of WriteReq MSHR hits
system.cpu7.dcache.demand_mshr_hits::switch_cpus7.data         5679                       # number of demand (read+write) MSHR hits
system.cpu7.dcache.demand_mshr_hits::total         5679                       # number of demand (read+write) MSHR hits
system.cpu7.dcache.overall_mshr_hits::switch_cpus7.data         5679                       # number of overall MSHR hits
system.cpu7.dcache.overall_mshr_hits::total         5679                       # number of overall MSHR hits
system.cpu7.dcache.ReadReq_mshr_misses::switch_cpus7.data         3612                       # number of ReadReq MSHR misses
system.cpu7.dcache.ReadReq_mshr_misses::total         3612                       # number of ReadReq MSHR misses
system.cpu7.dcache.WriteReq_mshr_misses::switch_cpus7.data           15                       # number of WriteReq MSHR misses
system.cpu7.dcache.WriteReq_mshr_misses::total           15                       # number of WriteReq MSHR misses
system.cpu7.dcache.demand_mshr_misses::switch_cpus7.data         3627                       # number of demand (read+write) MSHR misses
system.cpu7.dcache.demand_mshr_misses::total         3627                       # number of demand (read+write) MSHR misses
system.cpu7.dcache.overall_mshr_misses::switch_cpus7.data         3627                       # number of overall MSHR misses
system.cpu7.dcache.overall_mshr_misses::total         3627                       # number of overall MSHR misses
system.cpu7.dcache.ReadReq_mshr_miss_latency::switch_cpus7.data    312088432                       # number of ReadReq MSHR miss cycles
system.cpu7.dcache.ReadReq_mshr_miss_latency::total    312088432                       # number of ReadReq MSHR miss cycles
system.cpu7.dcache.WriteReq_mshr_miss_latency::switch_cpus7.data      1217036                       # number of WriteReq MSHR miss cycles
system.cpu7.dcache.WriteReq_mshr_miss_latency::total      1217036                       # number of WriteReq MSHR miss cycles
system.cpu7.dcache.demand_mshr_miss_latency::switch_cpus7.data    313305468                       # number of demand (read+write) MSHR miss cycles
system.cpu7.dcache.demand_mshr_miss_latency::total    313305468                       # number of demand (read+write) MSHR miss cycles
system.cpu7.dcache.overall_mshr_miss_latency::switch_cpus7.data    313305468                       # number of overall MSHR miss cycles
system.cpu7.dcache.overall_mshr_miss_latency::total    313305468                       # number of overall MSHR miss cycles
system.cpu7.dcache.ReadReq_mshr_miss_rate::switch_cpus7.data     0.003756                       # mshr miss rate for ReadReq accesses
system.cpu7.dcache.ReadReq_mshr_miss_rate::total     0.003756                       # mshr miss rate for ReadReq accesses
system.cpu7.dcache.WriteReq_mshr_miss_rate::switch_cpus7.data     0.000021                       # mshr miss rate for WriteReq accesses
system.cpu7.dcache.WriteReq_mshr_miss_rate::total     0.000021                       # mshr miss rate for WriteReq accesses
system.cpu7.dcache.demand_mshr_miss_rate::switch_cpus7.data     0.002175                       # mshr miss rate for demand accesses
system.cpu7.dcache.demand_mshr_miss_rate::total     0.002175                       # mshr miss rate for demand accesses
system.cpu7.dcache.overall_mshr_miss_rate::switch_cpus7.data     0.002175                       # mshr miss rate for overall accesses
system.cpu7.dcache.overall_mshr_miss_rate::total     0.002175                       # mshr miss rate for overall accesses
system.cpu7.dcache.ReadReq_avg_mshr_miss_latency::switch_cpus7.data 86403.220377                       # average ReadReq mshr miss latency
system.cpu7.dcache.ReadReq_avg_mshr_miss_latency::total 86403.220377                       # average ReadReq mshr miss latency
system.cpu7.dcache.WriteReq_avg_mshr_miss_latency::switch_cpus7.data 81135.733333                       # average WriteReq mshr miss latency
system.cpu7.dcache.WriteReq_avg_mshr_miss_latency::total 81135.733333                       # average WriteReq mshr miss latency
system.cpu7.dcache.demand_avg_mshr_miss_latency::switch_cpus7.data 86381.435897                       # average overall mshr miss latency
system.cpu7.dcache.demand_avg_mshr_miss_latency::total 86381.435897                       # average overall mshr miss latency
system.cpu7.dcache.overall_avg_mshr_miss_latency::switch_cpus7.data 86381.435897                       # average overall mshr miss latency
system.cpu7.dcache.overall_avg_mshr_miss_latency::total 86381.435897                       # average overall mshr miss latency
system.cpu7.dcache.no_allocate_misses               0                       # Number of misses that were no-allocate

---------- End Simulation Statistics   ----------
