
---------- Begin Simulation Statistics ----------
sim_seconds                                  0.035835                       # Number of seconds simulated
sim_ticks                                 35835141030                       # Number of ticks simulated
final_tick                               562801504215                       # Number of ticks from beginning of simulation (restored from checkpoints and never reset)
sim_freq                                 1000000000000                       # Frequency of simulated ticks
host_inst_rate                                 126547                       # Simulator instruction rate (inst/s)
host_op_rate                                   163871                       # Simulator op (including micro ops) rate (op/s)
host_tick_rate                                1409864                       # Simulator tick rate (ticks/s)
host_mem_usage                               16907144                       # Number of bytes of host memory used
host_seconds                                 25417.44                       # Real time elapsed on the host
sim_insts                                  3216506729                       # Number of instructions simulated
sim_ops                                    4165192583                       # Number of ops (including micro ops) simulated
system.physmem.bytes_read::switch_cpus0.inst         1792                       # Number of bytes read from this memory
system.physmem.bytes_read::switch_cpus0.data      2015872                       # Number of bytes read from this memory
system.physmem.bytes_read::switch_cpus1.inst         1920                       # Number of bytes read from this memory
system.physmem.bytes_read::switch_cpus1.data      1815936                       # Number of bytes read from this memory
system.physmem.bytes_read::switch_cpus2.inst         1920                       # Number of bytes read from this memory
system.physmem.bytes_read::switch_cpus2.data       761344                       # Number of bytes read from this memory
system.physmem.bytes_read::total              4598784                       # Number of bytes read from this memory
system.physmem.bytes_inst_read::switch_cpus0.inst         1792                       # Number of instructions bytes read from this memory
system.physmem.bytes_inst_read::switch_cpus1.inst         1920                       # Number of instructions bytes read from this memory
system.physmem.bytes_inst_read::switch_cpus2.inst         1920                       # Number of instructions bytes read from this memory
system.physmem.bytes_inst_read::total            5632                       # Number of instructions bytes read from this memory
system.physmem.bytes_written::writebacks      1299456                       # Number of bytes written to this memory
system.physmem.bytes_written::total           1299456                       # Number of bytes written to this memory
system.physmem.num_reads::switch_cpus0.inst           14                       # Number of read requests responded to by this memory
system.physmem.num_reads::switch_cpus0.data        15749                       # Number of read requests responded to by this memory
system.physmem.num_reads::switch_cpus1.inst           15                       # Number of read requests responded to by this memory
system.physmem.num_reads::switch_cpus1.data        14187                       # Number of read requests responded to by this memory
system.physmem.num_reads::switch_cpus2.inst           15                       # Number of read requests responded to by this memory
system.physmem.num_reads::switch_cpus2.data         5948                       # Number of read requests responded to by this memory
system.physmem.num_reads::total                 35928                       # Number of read requests responded to by this memory
system.physmem.num_writes::writebacks           10152                       # Number of write requests responded to by this memory
system.physmem.num_writes::functional               0                       # Number of write requests responded to by this memory
system.physmem.num_writes::interrupt                0                       # Number of write requests responded to by this memory
system.physmem.num_writes::switch_cpus0.dtb.walker            0                       # Number of write requests responded to by this memory
system.physmem.num_writes::switch_cpus0.itb.walker            0                       # Number of write requests responded to by this memory
system.physmem.num_writes::switch_cpus0.inst            0                       # Number of write requests responded to by this memory
system.physmem.num_writes::switch_cpus0.data            0                       # Number of write requests responded to by this memory
system.physmem.num_writes::switch_cpus1.dtb.walker            0                       # Number of write requests responded to by this memory
system.physmem.num_writes::switch_cpus1.itb.walker            0                       # Number of write requests responded to by this memory
system.physmem.num_writes::switch_cpus1.inst            0                       # Number of write requests responded to by this memory
system.physmem.num_writes::switch_cpus1.data            0                       # Number of write requests responded to by this memory
system.physmem.num_writes::switch_cpus2.dtb.walker            0                       # Number of write requests responded to by this memory
system.physmem.num_writes::switch_cpus2.itb.walker            0                       # Number of write requests responded to by this memory
system.physmem.num_writes::switch_cpus2.inst            0                       # Number of write requests responded to by this memory
system.physmem.num_writes::switch_cpus2.data            0                       # Number of write requests responded to by this memory
system.physmem.num_writes::cpu0.dtb.walker            0                       # Number of write requests responded to by this memory
system.physmem.num_writes::cpu0.itb.walker            0                       # Number of write requests responded to by this memory
system.physmem.num_writes::cpu0.inst                0                       # Number of write requests responded to by this memory
system.physmem.num_writes::cpu0.data                0                       # Number of write requests responded to by this memory
system.physmem.num_writes::cpu1.dtb.walker            0                       # Number of write requests responded to by this memory
system.physmem.num_writes::cpu1.itb.walker            0                       # Number of write requests responded to by this memory
system.physmem.num_writes::cpu1.inst                0                       # Number of write requests responded to by this memory
system.physmem.num_writes::cpu1.data                0                       # Number of write requests responded to by this memory
system.physmem.num_writes::cpu2.dtb.walker            0                       # Number of write requests responded to by this memory
system.physmem.num_writes::cpu2.itb.walker            0                       # Number of write requests responded to by this memory
system.physmem.num_writes::cpu2.inst                0                       # Number of write requests responded to by this memory
system.physmem.num_writes::cpu2.data                0                       # Number of write requests responded to by this memory
system.physmem.num_writes::total                10152                       # Number of write requests responded to by this memory
system.physmem.bw_read::switch_cpus0.inst        50007                       # Total read bandwidth from this memory (bytes/s)
system.physmem.bw_read::switch_cpus0.data     56254055                       # Total read bandwidth from this memory (bytes/s)
system.physmem.bw_read::switch_cpus1.inst        53579                       # Total read bandwidth from this memory (bytes/s)
system.physmem.bw_read::switch_cpus1.data     50674727                       # Total read bandwidth from this memory (bytes/s)
system.physmem.bw_read::switch_cpus2.inst        53579                       # Total read bandwidth from this memory (bytes/s)
system.physmem.bw_read::switch_cpus2.data     21245738                       # Total read bandwidth from this memory (bytes/s)
system.physmem.bw_read::total               128331684                       # Total read bandwidth from this memory (bytes/s)
system.physmem.bw_inst_read::switch_cpus0.inst        50007                       # Instruction read bandwidth from this memory (bytes/s)
system.physmem.bw_inst_read::switch_cpus1.inst        53579                       # Instruction read bandwidth from this memory (bytes/s)
system.physmem.bw_inst_read::switch_cpus2.inst        53579                       # Instruction read bandwidth from this memory (bytes/s)
system.physmem.bw_inst_read::total             157164                       # Instruction read bandwidth from this memory (bytes/s)
system.physmem.bw_write::writebacks          36262059                       # Write bandwidth from this memory (bytes/s)
system.physmem.bw_write::total               36262059                       # Write bandwidth from this memory (bytes/s)
system.physmem.bw_total::writebacks          36262059                       # Total bandwidth to/from this memory (bytes/s)
system.physmem.bw_total::switch_cpus0.inst        50007                       # Total bandwidth to/from this memory (bytes/s)
system.physmem.bw_total::switch_cpus0.data     56254055                       # Total bandwidth to/from this memory (bytes/s)
system.physmem.bw_total::switch_cpus1.inst        53579                       # Total bandwidth to/from this memory (bytes/s)
system.physmem.bw_total::switch_cpus1.data     50674727                       # Total bandwidth to/from this memory (bytes/s)
system.physmem.bw_total::switch_cpus2.inst        53579                       # Total bandwidth to/from this memory (bytes/s)
system.physmem.bw_total::switch_cpus2.data     21245738                       # Total bandwidth to/from this memory (bytes/s)
system.physmem.bw_total::total              164593743                       # Total bandwidth to/from this memory (bytes/s)
system.switch_cpus0.dtb.inst_hits                   0                       # ITB inst hits
system.switch_cpus0.dtb.inst_misses                 0                       # ITB inst misses
system.switch_cpus0.dtb.read_hits                   0                       # DTB read hits
system.switch_cpus0.dtb.read_misses                 0                       # DTB read misses
system.switch_cpus0.dtb.write_hits                  0                       # DTB write hits
system.switch_cpus0.dtb.write_misses                0                       # DTB write misses
system.switch_cpus0.dtb.flush_tlb                   0                       # Number of times complete TLB was flushed
system.switch_cpus0.dtb.flush_tlb_mva               0                       # Number of times TLB was flushed by MVA
system.switch_cpus0.dtb.flush_tlb_mva_asid            0                       # Number of times TLB was flushed by MVA & ASID
system.switch_cpus0.dtb.flush_tlb_asid              0                       # Number of times TLB was flushed by ASID
system.switch_cpus0.dtb.flush_entries               0                       # Number of entries that have been flushed from TLB
system.switch_cpus0.dtb.align_faults                0                       # Number of TLB faults due to alignment restrictions
system.switch_cpus0.dtb.prefetch_faults             0                       # Number of TLB faults due to prefetch
system.switch_cpus0.dtb.domain_faults               0                       # Number of TLB faults due to domain restrictions
system.switch_cpus0.dtb.perms_faults                0                       # Number of TLB faults due to permissions restrictions
system.switch_cpus0.dtb.read_accesses               0                       # DTB read accesses
system.switch_cpus0.dtb.write_accesses              0                       # DTB write accesses
system.switch_cpus0.dtb.inst_accesses               0                       # ITB inst accesses
system.switch_cpus0.dtb.hits                        0                       # DTB hits
system.switch_cpus0.dtb.misses                      0                       # DTB misses
system.switch_cpus0.dtb.accesses                    0                       # DTB accesses
system.switch_cpus0.itb.inst_hits                   0                       # ITB inst hits
system.switch_cpus0.itb.inst_misses                 0                       # ITB inst misses
system.switch_cpus0.itb.read_hits                   0                       # DTB read hits
system.switch_cpus0.itb.read_misses                 0                       # DTB read misses
system.switch_cpus0.itb.write_hits                  0                       # DTB write hits
system.switch_cpus0.itb.write_misses                0                       # DTB write misses
system.switch_cpus0.itb.flush_tlb                   0                       # Number of times complete TLB was flushed
system.switch_cpus0.itb.flush_tlb_mva               0                       # Number of times TLB was flushed by MVA
system.switch_cpus0.itb.flush_tlb_mva_asid            0                       # Number of times TLB was flushed by MVA & ASID
system.switch_cpus0.itb.flush_tlb_asid              0                       # Number of times TLB was flushed by ASID
system.switch_cpus0.itb.flush_entries               0                       # Number of entries that have been flushed from TLB
system.switch_cpus0.itb.align_faults                0                       # Number of TLB faults due to alignment restrictions
system.switch_cpus0.itb.prefetch_faults             0                       # Number of TLB faults due to prefetch
system.switch_cpus0.itb.domain_faults               0                       # Number of TLB faults due to domain restrictions
system.switch_cpus0.itb.perms_faults                0                       # Number of TLB faults due to permissions restrictions
system.switch_cpus0.itb.read_accesses               0                       # DTB read accesses
system.switch_cpus0.itb.write_accesses              0                       # DTB write accesses
system.switch_cpus0.itb.inst_accesses               0                       # ITB inst accesses
system.switch_cpus0.itb.hits                        0                       # DTB hits
system.switch_cpus0.itb.misses                      0                       # DTB misses
system.switch_cpus0.itb.accesses                    0                       # DTB accesses
system.cpu0.workload.num_syscalls                   0                       # Number of system calls
system.switch_cpus0.numCycles                85935591                       # number of cpu cycles simulated
system.switch_cpus0.numWorkItemsStarted             0                       # number of work items this cpu started
system.switch_cpus0.numWorkItemsCompleted            0                       # number of work items this cpu completed
system.switch_cpus0.BPredUnit.lookups        31086771                       # Number of BP lookups
system.switch_cpus0.BPredUnit.condPredicted     25263448                       # Number of conditional branches predicted
system.switch_cpus0.BPredUnit.condIncorrect      2121717                       # Number of conditional branches incorrect
system.switch_cpus0.BPredUnit.BTBLookups     13083953                       # Number of BTB lookups
system.switch_cpus0.BPredUnit.BTBHits        12133791                       # Number of BTB hits
system.switch_cpus0.BPredUnit.BTBCorrect            0                       # Number of correct BTB predictions (this stat may not work properly.
system.switch_cpus0.BPredUnit.usedRAS         3283156                       # Number of times the RAS was used to get a target.
system.switch_cpus0.BPredUnit.RASInCorrect        89915                       # Number of incorrect RAS predictions.
system.switch_cpus0.fetch.icacheStallCycles     31209626                       # Number of cycles fetch is stalled on an Icache miss
system.switch_cpus0.fetch.Insts             172405743                       # Number of instructions fetch has processed
system.switch_cpus0.fetch.Branches           31086771                       # Number of branches that fetch encountered
system.switch_cpus0.fetch.predictedBranches     15416947                       # Number of branches that fetch has predicted taken
system.switch_cpus0.fetch.Cycles             37923040                       # Number of cycles fetch has run and was not squashing or blocked
system.switch_cpus0.fetch.SquashCycles       11390587                       # Number of cycles fetch has spent squashing
system.switch_cpus0.fetch.BlockedCycles       6247405                       # Number of cycles fetch has spent blocked
system.switch_cpus0.fetch.CacheLines         15287153                       # Number of cache lines fetched
system.switch_cpus0.fetch.IcacheSquashes       913841                       # Number of outstanding Icache misses that were squashed
system.switch_cpus0.fetch.rateDist::samples     84601823                       # Number of instructions fetched each cycle (Total)
system.switch_cpus0.fetch.rateDist::mean     2.517747                       # Number of instructions fetched each cycle (Total)
system.switch_cpus0.fetch.rateDist::stdev     3.306675                       # Number of instructions fetched each cycle (Total)
system.switch_cpus0.fetch.rateDist::underflows            0      0.00%      0.00% # Number of instructions fetched each cycle (Total)
system.switch_cpus0.fetch.rateDist::0        46678783     55.17%     55.17% # Number of instructions fetched each cycle (Total)
system.switch_cpus0.fetch.rateDist::1         3335517      3.94%     59.12% # Number of instructions fetched each cycle (Total)
system.switch_cpus0.fetch.rateDist::2         2688265      3.18%     62.29% # Number of instructions fetched each cycle (Total)
system.switch_cpus0.fetch.rateDist::3         6548191      7.74%     70.03% # Number of instructions fetched each cycle (Total)
system.switch_cpus0.fetch.rateDist::4         1767910      2.09%     72.12% # Number of instructions fetched each cycle (Total)
system.switch_cpus0.fetch.rateDist::5         2286191      2.70%     74.83% # Number of instructions fetched each cycle (Total)
system.switch_cpus0.fetch.rateDist::6         1652641      1.95%     76.78% # Number of instructions fetched each cycle (Total)
system.switch_cpus0.fetch.rateDist::7          923701      1.09%     77.87% # Number of instructions fetched each cycle (Total)
system.switch_cpus0.fetch.rateDist::8        18720624     22.13%    100.00% # Number of instructions fetched each cycle (Total)
system.switch_cpus0.fetch.rateDist::overflows            0      0.00%    100.00% # Number of instructions fetched each cycle (Total)
system.switch_cpus0.fetch.rateDist::min_value            0                       # Number of instructions fetched each cycle (Total)
system.switch_cpus0.fetch.rateDist::max_value            8                       # Number of instructions fetched each cycle (Total)
system.switch_cpus0.fetch.rateDist::total     84601823                       # Number of instructions fetched each cycle (Total)
system.switch_cpus0.fetch.branchRate         0.361745                       # Number of branch fetches per cycle
system.switch_cpus0.fetch.rate               2.006220                       # Number of inst fetches per cycle
system.switch_cpus0.decode.IdleCycles        32648904                       # Number of cycles decode is idle
system.switch_cpus0.decode.BlockedCycles      6057669                       # Number of cycles decode is blocked
system.switch_cpus0.decode.RunCycles         36469603                       # Number of cycles decode is running
system.switch_cpus0.decode.UnblockCycles       245329                       # Number of cycles decode is unblocking
system.switch_cpus0.decode.SquashCycles       9180316                       # Number of cycles decode is squashing
system.switch_cpus0.decode.BranchResolved      5312423                       # Number of times decode resolved a branch
system.switch_cpus0.decode.BranchMispred        41753                       # Number of times decode detected a branch misprediction
system.switch_cpus0.decode.DecodedInsts     206140099                       # Number of instructions handled by decode
system.switch_cpus0.decode.SquashedInsts        78967                       # Number of squashed instructions handled by decode
system.switch_cpus0.rename.SquashCycles       9180316                       # Number of cycles rename is squashing
system.switch_cpus0.rename.IdleCycles        35039073                       # Number of cycles rename is idle
system.switch_cpus0.rename.BlockCycles        1346735                       # Number of cycles rename is blocking
system.switch_cpus0.rename.serializeStallCycles      1187827                       # count of cycles rename stalled for serializing inst
system.switch_cpus0.rename.RunCycles         34268303                       # Number of cycles rename is running
system.switch_cpus0.rename.UnblockCycles      3579567                       # Number of cycles rename is unblocking
system.switch_cpus0.rename.RenamedInsts     198853886                       # Number of instructions processed by rename
system.switch_cpus0.rename.ROBFullEvents        30699                       # Number of times rename has blocked due to ROB full
system.switch_cpus0.rename.IQFullEvents       1482874                       # Number of times rename has blocked due to IQ full
system.switch_cpus0.rename.LSQFullEvents      1114136                       # Number of times rename has blocked due to LSQ full
system.switch_cpus0.rename.FullRegisterEvents         1293                       # Number of times there has been no free registers
system.switch_cpus0.rename.RenamedOperands    278441696                       # Number of destination operands rename has renamed
system.switch_cpus0.rename.RenameLookups    928312168                       # Number of register rename lookups that rename has made
system.switch_cpus0.rename.int_rename_lookups    928312168                       # Number of integer rename lookups
system.switch_cpus0.rename.CommittedMaps    170695504                       # Number of HB maps that are committed
system.switch_cpus0.rename.UndoneMaps       107746147                       # Number of HB maps that are undone due to squashing
system.switch_cpus0.rename.serializingInsts        40480                       # count of serializing insts renamed
system.switch_cpus0.rename.tempSerializingInsts        22647                       # count of temporary serializing insts renamed
system.switch_cpus0.rename.skidInsts          9809962                       # count of insts added to the skid buffer
system.switch_cpus0.memDep0.insertedLoads     18539183                       # Number of loads inserted to the mem dependence unit.
system.switch_cpus0.memDep0.insertedStores      9431976                       # Number of stores inserted to the mem dependence unit.
system.switch_cpus0.memDep0.conflictingLoads       149120                       # Number of conflicting loads.
system.switch_cpus0.memDep0.conflictingStores      3029035                       # Number of conflicting stores.
system.switch_cpus0.iq.iqInstsAdded         188060713                       # Number of instructions added to the IQ (excludes non-spec)
system.switch_cpus0.iq.iqNonSpecInstsAdded        38903                       # Number of non-speculative instructions added to the IQ
system.switch_cpus0.iq.iqInstsIssued        149408961                       # Number of instructions issued
system.switch_cpus0.iq.iqSquashedInstsIssued       290004                       # Number of squashed instructions issued
system.switch_cpus0.iq.iqSquashedInstsExamined     64956350                       # Number of squashed instructions iterated over during squash; mainly for profiling
system.switch_cpus0.iq.iqSquashedOperandsExamined    198357400                       # Number of squashed operands that are examined and possibly removed from graph
system.switch_cpus0.iq.iqSquashedNonSpecRemoved         5835                       # Number of squashed non-spec instructions that were removed
system.switch_cpus0.iq.issued_per_cycle::samples     84601823                       # Number of insts issued each cycle
system.switch_cpus0.iq.issued_per_cycle::mean     1.766025                       # Number of insts issued each cycle
system.switch_cpus0.iq.issued_per_cycle::stdev     1.887451                       # Number of insts issued each cycle
system.switch_cpus0.iq.issued_per_cycle::underflows            0      0.00%      0.00% # Number of insts issued each cycle
system.switch_cpus0.iq.issued_per_cycle::0     29241821     34.56%     34.56% # Number of insts issued each cycle
system.switch_cpus0.iq.issued_per_cycle::1     18269104     21.59%     56.16% # Number of insts issued each cycle
system.switch_cpus0.iq.issued_per_cycle::2     11935432     14.11%     70.27% # Number of insts issued each cycle
system.switch_cpus0.iq.issued_per_cycle::3      8849613     10.46%     80.73% # Number of insts issued each cycle
system.switch_cpus0.iq.issued_per_cycle::4      7624445      9.01%     89.74% # Number of insts issued each cycle
system.switch_cpus0.iq.issued_per_cycle::5      3943525      4.66%     94.40% # Number of insts issued each cycle
system.switch_cpus0.iq.issued_per_cycle::6      3382646      4.00%     98.40% # Number of insts issued each cycle
system.switch_cpus0.iq.issued_per_cycle::7       633023      0.75%     99.15% # Number of insts issued each cycle
system.switch_cpus0.iq.issued_per_cycle::8       722214      0.85%    100.00% # Number of insts issued each cycle
system.switch_cpus0.iq.issued_per_cycle::overflows            0      0.00%    100.00% # Number of insts issued each cycle
system.switch_cpus0.iq.issued_per_cycle::min_value            0                       # Number of insts issued each cycle
system.switch_cpus0.iq.issued_per_cycle::max_value            8                       # Number of insts issued each cycle
system.switch_cpus0.iq.issued_per_cycle::total     84601823                       # Number of insts issued each cycle
system.switch_cpus0.iq.fu_full::No_OpClass            0      0.00%      0.00% # attempts to use FU when none available
system.switch_cpus0.iq.fu_full::IntAlu         875408     71.13%     71.13% # attempts to use FU when none available
system.switch_cpus0.iq.fu_full::IntMult             5      0.00%     71.13% # attempts to use FU when none available
system.switch_cpus0.iq.fu_full::IntDiv              0      0.00%     71.13% # attempts to use FU when none available
system.switch_cpus0.iq.fu_full::FloatAdd            0      0.00%     71.13% # attempts to use FU when none available
system.switch_cpus0.iq.fu_full::FloatCmp            0      0.00%     71.13% # attempts to use FU when none available
system.switch_cpus0.iq.fu_full::FloatCvt            0      0.00%     71.13% # attempts to use FU when none available
system.switch_cpus0.iq.fu_full::FloatMult            0      0.00%     71.13% # attempts to use FU when none available
system.switch_cpus0.iq.fu_full::FloatDiv            0      0.00%     71.13% # attempts to use FU when none available
system.switch_cpus0.iq.fu_full::FloatSqrt            0      0.00%     71.13% # attempts to use FU when none available
system.switch_cpus0.iq.fu_full::SimdAdd             0      0.00%     71.13% # attempts to use FU when none available
system.switch_cpus0.iq.fu_full::SimdAddAcc            0      0.00%     71.13% # attempts to use FU when none available
system.switch_cpus0.iq.fu_full::SimdAlu             0      0.00%     71.13% # attempts to use FU when none available
system.switch_cpus0.iq.fu_full::SimdCmp             0      0.00%     71.13% # attempts to use FU when none available
system.switch_cpus0.iq.fu_full::SimdCvt             0      0.00%     71.13% # attempts to use FU when none available
system.switch_cpus0.iq.fu_full::SimdMisc            0      0.00%     71.13% # attempts to use FU when none available
system.switch_cpus0.iq.fu_full::SimdMult            0      0.00%     71.13% # attempts to use FU when none available
system.switch_cpus0.iq.fu_full::SimdMultAcc            0      0.00%     71.13% # attempts to use FU when none available
system.switch_cpus0.iq.fu_full::SimdShift            0      0.00%     71.13% # attempts to use FU when none available
system.switch_cpus0.iq.fu_full::SimdShiftAcc            0      0.00%     71.13% # attempts to use FU when none available
system.switch_cpus0.iq.fu_full::SimdSqrt            0      0.00%     71.13% # attempts to use FU when none available
system.switch_cpus0.iq.fu_full::SimdFloatAdd            0      0.00%     71.13% # attempts to use FU when none available
system.switch_cpus0.iq.fu_full::SimdFloatAlu            0      0.00%     71.13% # attempts to use FU when none available
system.switch_cpus0.iq.fu_full::SimdFloatCmp            0      0.00%     71.13% # attempts to use FU when none available
system.switch_cpus0.iq.fu_full::SimdFloatCvt            0      0.00%     71.13% # attempts to use FU when none available
system.switch_cpus0.iq.fu_full::SimdFloatDiv            0      0.00%     71.13% # attempts to use FU when none available
system.switch_cpus0.iq.fu_full::SimdFloatMisc            0      0.00%     71.13% # attempts to use FU when none available
system.switch_cpus0.iq.fu_full::SimdFloatMult            0      0.00%     71.13% # attempts to use FU when none available
system.switch_cpus0.iq.fu_full::SimdFloatMultAcc            0      0.00%     71.13% # attempts to use FU when none available
system.switch_cpus0.iq.fu_full::SimdFloatSqrt            0      0.00%     71.13% # attempts to use FU when none available
system.switch_cpus0.iq.fu_full::MemRead        177838     14.45%     85.58% # attempts to use FU when none available
system.switch_cpus0.iq.fu_full::MemWrite       177520     14.42%    100.00% # attempts to use FU when none available
system.switch_cpus0.iq.fu_full::IprAccess            0      0.00%    100.00% # attempts to use FU when none available
system.switch_cpus0.iq.fu_full::InstPrefetch            0      0.00%    100.00% # attempts to use FU when none available
system.switch_cpus0.iq.FU_type_0::No_OpClass            0      0.00%      0.00% # Type of FU issued
system.switch_cpus0.iq.FU_type_0::IntAlu    124485746     83.32%     83.32% # Type of FU issued
system.switch_cpus0.iq.FU_type_0::IntMult      2126258      1.42%     84.74% # Type of FU issued
system.switch_cpus0.iq.FU_type_0::IntDiv            0      0.00%     84.74% # Type of FU issued
system.switch_cpus0.iq.FU_type_0::FloatAdd            0      0.00%     84.74% # Type of FU issued
system.switch_cpus0.iq.FU_type_0::FloatCmp            0      0.00%     84.74% # Type of FU issued
system.switch_cpus0.iq.FU_type_0::FloatCvt            0      0.00%     84.74% # Type of FU issued
system.switch_cpus0.iq.FU_type_0::FloatMult            0      0.00%     84.74% # Type of FU issued
system.switch_cpus0.iq.FU_type_0::FloatDiv            0      0.00%     84.74% # Type of FU issued
system.switch_cpus0.iq.FU_type_0::FloatSqrt            0      0.00%     84.74% # Type of FU issued
system.switch_cpus0.iq.FU_type_0::SimdAdd            0      0.00%     84.74% # Type of FU issued
system.switch_cpus0.iq.FU_type_0::SimdAddAcc            0      0.00%     84.74% # Type of FU issued
system.switch_cpus0.iq.FU_type_0::SimdAlu            0      0.00%     84.74% # Type of FU issued
system.switch_cpus0.iq.FU_type_0::SimdCmp            0      0.00%     84.74% # Type of FU issued
system.switch_cpus0.iq.FU_type_0::SimdCvt            0      0.00%     84.74% # Type of FU issued
system.switch_cpus0.iq.FU_type_0::SimdMisc            0      0.00%     84.74% # Type of FU issued
system.switch_cpus0.iq.FU_type_0::SimdMult            0      0.00%     84.74% # Type of FU issued
system.switch_cpus0.iq.FU_type_0::SimdMultAcc            0      0.00%     84.74% # Type of FU issued
system.switch_cpus0.iq.FU_type_0::SimdShift            0      0.00%     84.74% # Type of FU issued
system.switch_cpus0.iq.FU_type_0::SimdShiftAcc            0      0.00%     84.74% # Type of FU issued
system.switch_cpus0.iq.FU_type_0::SimdSqrt            0      0.00%     84.74% # Type of FU issued
system.switch_cpus0.iq.FU_type_0::SimdFloatAdd            0      0.00%     84.74% # Type of FU issued
system.switch_cpus0.iq.FU_type_0::SimdFloatAlu            0      0.00%     84.74% # Type of FU issued
system.switch_cpus0.iq.FU_type_0::SimdFloatCmp            0      0.00%     84.74% # Type of FU issued
system.switch_cpus0.iq.FU_type_0::SimdFloatCvt            0      0.00%     84.74% # Type of FU issued
system.switch_cpus0.iq.FU_type_0::SimdFloatDiv            0      0.00%     84.74% # Type of FU issued
system.switch_cpus0.iq.FU_type_0::SimdFloatMisc        16534      0.01%     84.75% # Type of FU issued
system.switch_cpus0.iq.FU_type_0::SimdFloatMult            0      0.00%     84.75% # Type of FU issued
system.switch_cpus0.iq.FU_type_0::SimdFloatMultAcc            0      0.00%     84.75% # Type of FU issued
system.switch_cpus0.iq.FU_type_0::SimdFloatSqrt            0      0.00%     84.75% # Type of FU issued
system.switch_cpus0.iq.FU_type_0::MemRead     14836291      9.93%     94.68% # Type of FU issued
system.switch_cpus0.iq.FU_type_0::MemWrite      7944132      5.32%    100.00% # Type of FU issued
system.switch_cpus0.iq.FU_type_0::IprAccess            0      0.00%    100.00% # Type of FU issued
system.switch_cpus0.iq.FU_type_0::InstPrefetch            0      0.00%    100.00% # Type of FU issued
system.switch_cpus0.iq.FU_type_0::total     149408961                       # Type of FU issued
system.switch_cpus0.iq.rate                  1.738616                       # Inst issue rate
system.switch_cpus0.iq.fu_busy_cnt            1230771                       # FU busy when requested
system.switch_cpus0.iq.fu_busy_rate          0.008238                       # FU busy rate (busy events/executed inst)
system.switch_cpus0.iq.int_inst_queue_reads    384940518                       # Number of integer instruction queue reads
system.switch_cpus0.iq.int_inst_queue_writes    253056633                       # Number of integer instruction queue writes
system.switch_cpus0.iq.int_inst_queue_wakeup_accesses    145603075                       # Number of integer instruction queue wakeup accesses
system.switch_cpus0.iq.fp_inst_queue_reads            0                       # Number of floating instruction queue reads
system.switch_cpus0.iq.fp_inst_queue_writes            0                       # Number of floating instruction queue writes
system.switch_cpus0.iq.fp_inst_queue_wakeup_accesses            0                       # Number of floating instruction queue wakeup accesses
system.switch_cpus0.iq.int_alu_accesses     150639732                       # Number of integer alu accesses
system.switch_cpus0.iq.fp_alu_accesses              0                       # Number of floating point alu accesses
system.switch_cpus0.iew.lsq.thread0.forwLoads       560872                       # Number of loads that had data forwarded from stores
system.switch_cpus0.iew.lsq.thread0.invAddrLoads            0                       # Number of loads ignored due to an invalid address
system.switch_cpus0.iew.lsq.thread0.squashedLoads      7305215                       # Number of loads squashed
system.switch_cpus0.iew.lsq.thread0.ignoredResponses         2943                       # Number of memory responses ignored because the instruction is squashed
system.switch_cpus0.iew.lsq.thread0.memOrderViolation          668                       # Number of memory ordering violations
system.switch_cpus0.iew.lsq.thread0.squashedStores      2406200                       # Number of stores squashed
system.switch_cpus0.iew.lsq.thread0.invAddrSwpfs            0                       # Number of software prefetches ignored due to an invalid address
system.switch_cpus0.iew.lsq.thread0.blockedLoads            0                       # Number of blocked loads due to partial load-store forwarding
system.switch_cpus0.iew.lsq.thread0.rescheduledLoads            0                       # Number of loads that were rescheduled
system.switch_cpus0.iew.lsq.thread0.cacheBlocked            0                       # Number of times an access to memory failed due to the cache being blocked
system.switch_cpus0.iew.iewIdleCycles               0                       # Number of cycles IEW is idle
system.switch_cpus0.iew.iewSquashCycles       9180316                       # Number of cycles IEW is squashing
system.switch_cpus0.iew.iewBlockCycles         544927                       # Number of cycles IEW is blocking
system.switch_cpus0.iew.iewUnblockCycles        80729                       # Number of cycles IEW is unblocking
system.switch_cpus0.iew.iewDispatchedInsts    188099616                       # Number of instructions dispatched to IQ
system.switch_cpus0.iew.iewDispSquashedInsts       413287                       # Number of squashed instructions skipped by dispatch
system.switch_cpus0.iew.iewDispLoadInsts     18539183                       # Number of dispatched load instructions
system.switch_cpus0.iew.iewDispStoreInsts      9431976                       # Number of dispatched store instructions
system.switch_cpus0.iew.iewDispNonSpecInsts        22369                       # Number of dispatched non-speculative instructions
system.switch_cpus0.iew.iewIQFullEvents         72312                       # Number of times the IQ has become full, causing a stall
system.switch_cpus0.iew.iewLSQFullEvents            0                       # Number of times the LSQ has become full, causing a stall
system.switch_cpus0.iew.memOrderViolationEvents          668                       # Number of memory order violations
system.switch_cpus0.iew.predictedTakenIncorrect      1270567                       # Number of branches that were predicted taken incorrectly
system.switch_cpus0.iew.predictedNotTakenIncorrect      1191545                       # Number of branches that were predicted not taken incorrectly
system.switch_cpus0.iew.branchMispredicts      2462112                       # Number of branch mispredicts detected at execute
system.switch_cpus0.iew.iewExecutedInsts    147031794                       # Number of executed instructions
system.switch_cpus0.iew.iewExecLoadInsts     13917144                       # Number of load instructions executed
system.switch_cpus0.iew.iewExecSquashedInsts      2377165                       # Number of squashed instructions skipped in execute
system.switch_cpus0.iew.exec_swp                    0                       # number of swp insts executed
system.switch_cpus0.iew.exec_nop                    0                       # number of nop insts executed
system.switch_cpus0.iew.exec_refs            21652155                       # number of memory reference insts executed
system.switch_cpus0.iew.exec_branches        20739994                       # Number of branches executed
system.switch_cpus0.iew.exec_stores           7735011                       # Number of stores executed
system.switch_cpus0.iew.exec_rate            1.710953                       # Inst execution rate
system.switch_cpus0.iew.wb_sent             145699648                       # cumulative count of insts sent to commit
system.switch_cpus0.iew.wb_count            145603075                       # cumulative count of insts written-back
system.switch_cpus0.iew.wb_producers         94876455                       # num instructions producing a value
system.switch_cpus0.iew.wb_consumers        267870084                       # num instructions consuming a value
system.switch_cpus0.iew.wb_penalized                0                       # number of instrctions required to write to 'other' IQ
system.switch_cpus0.iew.wb_rate              1.694328                       # insts written-back per cycle
system.switch_cpus0.iew.wb_fanout            0.354188                       # average fanout of values written-back
system.switch_cpus0.iew.wb_penalized_rate            0                       # fraction of instructions written-back that wrote to 'other' IQ
system.switch_cpus0.commit.commitCommittedInsts    100000001                       # The number of committed instructions
system.switch_cpus0.commit.commitCommittedOps    122809435                       # The number of committed instructions
system.switch_cpus0.commit.commitSquashedInsts     65290894                       # The number of squashed insts skipped by commit
system.switch_cpus0.commit.commitNonSpecStalls        33068                       # The number of times commit has been forced to stall to communicate backwards
system.switch_cpus0.commit.branchMispredicts      2126973                       # The number of times a branch was mispredicted
system.switch_cpus0.commit.committed_per_cycle::samples     75421507                       # Number of insts commited each cycle
system.switch_cpus0.commit.committed_per_cycle::mean     1.628308                       # Number of insts commited each cycle
system.switch_cpus0.commit.committed_per_cycle::stdev     2.140742                       # Number of insts commited each cycle
system.switch_cpus0.commit.committed_per_cycle::underflows            0      0.00%      0.00% # Number of insts commited each cycle
system.switch_cpus0.commit.committed_per_cycle::0     29187488     38.70%     38.70% # Number of insts commited each cycle
system.switch_cpus0.commit.committed_per_cycle::1     20962584     27.79%     66.49% # Number of insts commited each cycle
system.switch_cpus0.commit.committed_per_cycle::2      8532438     11.31%     77.81% # Number of insts commited each cycle
system.switch_cpus0.commit.committed_per_cycle::3      4792235      6.35%     84.16% # Number of insts commited each cycle
system.switch_cpus0.commit.committed_per_cycle::4      3917184      5.19%     89.35% # Number of insts commited each cycle
system.switch_cpus0.commit.committed_per_cycle::5      1590337      2.11%     91.46% # Number of insts commited each cycle
system.switch_cpus0.commit.committed_per_cycle::6      1890178      2.51%     93.97% # Number of insts commited each cycle
system.switch_cpus0.commit.committed_per_cycle::7       948723      1.26%     95.23% # Number of insts commited each cycle
system.switch_cpus0.commit.committed_per_cycle::8      3600340      4.77%    100.00% # Number of insts commited each cycle
system.switch_cpus0.commit.committed_per_cycle::overflows            0      0.00%    100.00% # Number of insts commited each cycle
system.switch_cpus0.commit.committed_per_cycle::min_value            0                       # Number of insts commited each cycle
system.switch_cpus0.commit.committed_per_cycle::max_value            8                       # Number of insts commited each cycle
system.switch_cpus0.commit.committed_per_cycle::total     75421507                       # Number of insts commited each cycle
system.switch_cpus0.commit.committedInsts    100000001                       # Number of instructions committed
system.switch_cpus0.commit.committedOps     122809435                       # Number of ops (including micro ops) committed
system.switch_cpus0.commit.swp_count                0                       # Number of s/w prefetches committed
system.switch_cpus0.commit.refs              18259741                       # Number of memory references committed
system.switch_cpus0.commit.loads             11233968                       # Number of loads committed
system.switch_cpus0.commit.membars              16534                       # Number of memory barriers committed
system.switch_cpus0.commit.branches          17645481                       # Number of branches committed
system.switch_cpus0.commit.fp_insts                 0                       # Number of committed floating point instructions.
system.switch_cpus0.commit.int_insts        110655596                       # Number of committed integer instructions.
system.switch_cpus0.commit.function_calls      2500197                       # Number of function calls committed.
system.switch_cpus0.commit.bw_lim_events      3600340                       # number cycles where commit BW limit reached
system.switch_cpus0.commit.bw_limited               0                       # number of insts not committed due to BW limits
system.switch_cpus0.rob.rob_reads           259921496                       # The number of ROB reads
system.switch_cpus0.rob.rob_writes          385386867                       # The number of ROB writes
system.switch_cpus0.timesIdled                  42950                       # Number of times that the entire CPU went into an idle state and unscheduled itself
system.switch_cpus0.idleCycles                1333768                       # Total number of cycles that the CPU has spent unscheduled due to idling
system.switch_cpus0.committedInsts          100000001                       # Number of Instructions Simulated
system.switch_cpus0.committedOps            122809435                       # Number of Ops (including micro ops) Simulated
system.switch_cpus0.committedInsts_total    100000001                       # Number of Instructions Simulated
system.switch_cpus0.cpi                      0.859356                       # CPI: Cycles Per Instruction
system.switch_cpus0.cpi_total                0.859356                       # CPI: Total CPI of All Threads
system.switch_cpus0.ipc                      1.163662                       # IPC: Instructions Per Cycle
system.switch_cpus0.ipc_total                1.163662                       # IPC: Total IPC of All Threads
system.switch_cpus0.int_regfile_reads       661461266                       # number of integer regfile reads
system.switch_cpus0.int_regfile_writes      201253895                       # number of integer regfile writes
system.switch_cpus0.misc_regfile_reads      190200801                       # number of misc regfile reads
system.switch_cpus0.misc_regfile_writes         33068                       # number of misc regfile writes
system.switch_cpus1.dtb.inst_hits                   0                       # ITB inst hits
system.switch_cpus1.dtb.inst_misses                 0                       # ITB inst misses
system.switch_cpus1.dtb.read_hits                   0                       # DTB read hits
system.switch_cpus1.dtb.read_misses                 0                       # DTB read misses
system.switch_cpus1.dtb.write_hits                  0                       # DTB write hits
system.switch_cpus1.dtb.write_misses                0                       # DTB write misses
system.switch_cpus1.dtb.flush_tlb                   0                       # Number of times complete TLB was flushed
system.switch_cpus1.dtb.flush_tlb_mva               0                       # Number of times TLB was flushed by MVA
system.switch_cpus1.dtb.flush_tlb_mva_asid            0                       # Number of times TLB was flushed by MVA & ASID
system.switch_cpus1.dtb.flush_tlb_asid              0                       # Number of times TLB was flushed by ASID
system.switch_cpus1.dtb.flush_entries               0                       # Number of entries that have been flushed from TLB
system.switch_cpus1.dtb.align_faults                0                       # Number of TLB faults due to alignment restrictions
system.switch_cpus1.dtb.prefetch_faults             0                       # Number of TLB faults due to prefetch
system.switch_cpus1.dtb.domain_faults               0                       # Number of TLB faults due to domain restrictions
system.switch_cpus1.dtb.perms_faults                0                       # Number of TLB faults due to permissions restrictions
system.switch_cpus1.dtb.read_accesses               0                       # DTB read accesses
system.switch_cpus1.dtb.write_accesses              0                       # DTB write accesses
system.switch_cpus1.dtb.inst_accesses               0                       # ITB inst accesses
system.switch_cpus1.dtb.hits                        0                       # DTB hits
system.switch_cpus1.dtb.misses                      0                       # DTB misses
system.switch_cpus1.dtb.accesses                    0                       # DTB accesses
system.switch_cpus1.itb.inst_hits                   0                       # ITB inst hits
system.switch_cpus1.itb.inst_misses                 0                       # ITB inst misses
system.switch_cpus1.itb.read_hits                   0                       # DTB read hits
system.switch_cpus1.itb.read_misses                 0                       # DTB read misses
system.switch_cpus1.itb.write_hits                  0                       # DTB write hits
system.switch_cpus1.itb.write_misses                0                       # DTB write misses
system.switch_cpus1.itb.flush_tlb                   0                       # Number of times complete TLB was flushed
system.switch_cpus1.itb.flush_tlb_mva               0                       # Number of times TLB was flushed by MVA
system.switch_cpus1.itb.flush_tlb_mva_asid            0                       # Number of times TLB was flushed by MVA & ASID
system.switch_cpus1.itb.flush_tlb_asid              0                       # Number of times TLB was flushed by ASID
system.switch_cpus1.itb.flush_entries               0                       # Number of entries that have been flushed from TLB
system.switch_cpus1.itb.align_faults                0                       # Number of TLB faults due to alignment restrictions
system.switch_cpus1.itb.prefetch_faults             0                       # Number of TLB faults due to prefetch
system.switch_cpus1.itb.domain_faults               0                       # Number of TLB faults due to domain restrictions
system.switch_cpus1.itb.perms_faults                0                       # Number of TLB faults due to permissions restrictions
system.switch_cpus1.itb.read_accesses               0                       # DTB read accesses
system.switch_cpus1.itb.write_accesses              0                       # DTB write accesses
system.switch_cpus1.itb.inst_accesses               0                       # ITB inst accesses
system.switch_cpus1.itb.hits                        0                       # DTB hits
system.switch_cpus1.itb.misses                      0                       # DTB misses
system.switch_cpus1.itb.accesses                    0                       # DTB accesses
system.cpu1.workload.num_syscalls                   0                       # Number of system calls
system.switch_cpus1.numCycles                85935591                       # number of cpu cycles simulated
system.switch_cpus1.numWorkItemsStarted             0                       # number of work items this cpu started
system.switch_cpus1.numWorkItemsCompleted            0                       # number of work items this cpu completed
system.switch_cpus1.BPredUnit.lookups        31381527                       # Number of BP lookups
system.switch_cpus1.BPredUnit.condPredicted     27439756                       # Number of conditional branches predicted
system.switch_cpus1.BPredUnit.condIncorrect      1986658                       # Number of conditional branches incorrect
system.switch_cpus1.BPredUnit.BTBLookups     15672850                       # Number of BTB lookups
system.switch_cpus1.BPredUnit.BTBHits        15087929                       # Number of BTB hits
system.switch_cpus1.BPredUnit.BTBCorrect            0                       # Number of correct BTB predictions (this stat may not work properly.
system.switch_cpus1.BPredUnit.usedRAS         2256661                       # Number of times the RAS was used to get a target.
system.switch_cpus1.BPredUnit.RASInCorrect        62761                       # Number of incorrect RAS predictions.
system.switch_cpus1.fetch.icacheStallCycles     37000839                       # Number of cycles fetch is stalled on an Icache miss
system.switch_cpus1.fetch.Insts             174627422                       # Number of instructions fetch has processed
system.switch_cpus1.fetch.Branches           31381527                       # Number of branches that fetch encountered
system.switch_cpus1.fetch.predictedBranches     17344590                       # Number of branches that fetch has predicted taken
system.switch_cpus1.fetch.Cycles             35945681                       # Number of cycles fetch has run and was not squashing or blocked
system.switch_cpus1.fetch.SquashCycles        9755379                       # Number of cycles fetch has spent squashing
system.switch_cpus1.fetch.BlockedCycles       4143383                       # Number of cycles fetch has spent blocked
system.switch_cpus1.fetch.CacheLines         18239363                       # Number of cache lines fetched
system.switch_cpus1.fetch.IcacheSquashes       787812                       # Number of outstanding Icache misses that were squashed
system.switch_cpus1.fetch.rateDist::samples     84847316                       # Number of instructions fetched each cycle (Total)
system.switch_cpus1.fetch.rateDist::mean     2.369111                       # Number of instructions fetched each cycle (Total)
system.switch_cpus1.fetch.rateDist::stdev     3.172469                       # Number of instructions fetched each cycle (Total)
system.switch_cpus1.fetch.rateDist::underflows            0      0.00%      0.00% # Number of instructions fetched each cycle (Total)
system.switch_cpus1.fetch.rateDist::0        48901635     57.63%     57.63% # Number of instructions fetched each cycle (Total)
system.switch_cpus1.fetch.rateDist::1         1780616      2.10%     59.73% # Number of instructions fetched each cycle (Total)
system.switch_cpus1.fetch.rateDist::2         3258251      3.84%     63.57% # Number of instructions fetched each cycle (Total)
system.switch_cpus1.fetch.rateDist::3         3054806      3.60%     67.17% # Number of instructions fetched each cycle (Total)
system.switch_cpus1.fetch.rateDist::4         5032215      5.93%     73.10% # Number of instructions fetched each cycle (Total)
system.switch_cpus1.fetch.rateDist::5         5240485      6.18%     79.28% # Number of instructions fetched each cycle (Total)
system.switch_cpus1.fetch.rateDist::6         1240587      1.46%     80.74% # Number of instructions fetched each cycle (Total)
system.switch_cpus1.fetch.rateDist::7          933433      1.10%     81.84% # Number of instructions fetched each cycle (Total)
system.switch_cpus1.fetch.rateDist::8        15405288     18.16%    100.00% # Number of instructions fetched each cycle (Total)
system.switch_cpus1.fetch.rateDist::overflows            0      0.00%    100.00% # Number of instructions fetched each cycle (Total)
system.switch_cpus1.fetch.rateDist::min_value            0                       # Number of instructions fetched each cycle (Total)
system.switch_cpus1.fetch.rateDist::max_value            8                       # Number of instructions fetched each cycle (Total)
system.switch_cpus1.fetch.rateDist::total     84847316                       # Number of instructions fetched each cycle (Total)
system.switch_cpus1.fetch.branchRate         0.365175                       # Number of branch fetches per cycle
system.switch_cpus1.fetch.rate               2.032073                       # Number of inst fetches per cycle
system.switch_cpus1.decode.IdleCycles        38163928                       # Number of cycles decode is idle
system.switch_cpus1.decode.BlockedCycles      4004062                       # Number of cycles decode is blocked
system.switch_cpus1.decode.RunCycles         34789191                       # Number of cycles decode is running
system.switch_cpus1.decode.UnblockCycles       138414                       # Number of cycles decode is unblocking
system.switch_cpus1.decode.SquashCycles       7751717                       # Number of cycles decode is squashing
system.switch_cpus1.decode.BranchResolved      3410006                       # Number of times decode resolved a branch
system.switch_cpus1.decode.BranchMispred         5710                       # Number of times decode detected a branch misprediction
system.switch_cpus1.decode.DecodedInsts     195373170                       # Number of instructions handled by decode
system.switch_cpus1.decode.SquashedInsts         1354                       # Number of squashed instructions handled by decode
system.switch_cpus1.rename.SquashCycles       7751717                       # Number of cycles rename is squashing
system.switch_cpus1.rename.IdleCycles        39765345                       # Number of cycles rename is idle
system.switch_cpus1.rename.BlockCycles        1345640                       # Number of cycles rename is blocking
system.switch_cpus1.rename.serializeStallCycles       459331                       # count of cycles rename stalled for serializing inst
system.switch_cpus1.rename.RunCycles         33310797                       # Number of cycles rename is running
system.switch_cpus1.rename.UnblockCycles      2214482                       # Number of cycles rename is unblocking
system.switch_cpus1.rename.RenamedInsts     190237717                       # Number of instructions processed by rename
system.switch_cpus1.rename.ROBFullEvents           27                       # Number of times rename has blocked due to ROB full
system.switch_cpus1.rename.IQFullEvents        757966                       # Number of times rename has blocked due to IQ full
system.switch_cpus1.rename.LSQFullEvents       891210                       # Number of times rename has blocked due to LSQ full
system.switch_cpus1.rename.RenamedOperands    252541334                       # Number of destination operands rename has renamed
system.switch_cpus1.rename.RenameLookups    865888743                       # Number of register rename lookups that rename has made
system.switch_cpus1.rename.int_rename_lookups    865888743                       # Number of integer rename lookups
system.switch_cpus1.rename.CommittedMaps    164411433                       # Number of HB maps that are committed
system.switch_cpus1.rename.UndoneMaps        88129859                       # Number of HB maps that are undone due to squashing
system.switch_cpus1.rename.serializingInsts        22437                       # count of serializing insts renamed
system.switch_cpus1.rename.tempSerializingInsts        10953                       # count of temporary serializing insts renamed
system.switch_cpus1.rename.skidInsts          5939018                       # count of insts added to the skid buffer
system.switch_cpus1.memDep0.insertedLoads     29300054                       # Number of loads inserted to the mem dependence unit.
system.switch_cpus1.memDep0.insertedStores      6360252                       # Number of stores inserted to the mem dependence unit.
system.switch_cpus1.memDep0.conflictingLoads       104503                       # Number of conflicting loads.
system.switch_cpus1.memDep0.conflictingStores      2072925                       # Number of conflicting stores.
system.switch_cpus1.iq.iqInstsAdded         180050138                       # Number of instructions added to the IQ (excludes non-spec)
system.switch_cpus1.iq.iqNonSpecInstsAdded        21893                       # Number of non-speculative instructions added to the IQ
system.switch_cpus1.iq.iqInstsIssued        151996940                       # Number of instructions issued
system.switch_cpus1.iq.iqSquashedInstsIssued       202192                       # Number of squashed instructions issued
system.switch_cpus1.iq.iqSquashedInstsExamined     53963484                       # Number of squashed instructions iterated over during squash; mainly for profiling
system.switch_cpus1.iq.iqSquashedOperandsExamined    148182941                       # Number of squashed operands that are examined and possibly removed from graph
system.switch_cpus1.iq.iqSquashedNonSpecRemoved           13                       # Number of squashed non-spec instructions that were removed
system.switch_cpus1.iq.issued_per_cycle::samples     84847316                       # Number of insts issued each cycle
system.switch_cpus1.iq.issued_per_cycle::mean     1.791417                       # Number of insts issued each cycle
system.switch_cpus1.iq.issued_per_cycle::stdev     1.841135                       # Number of insts issued each cycle
system.switch_cpus1.iq.issued_per_cycle::underflows            0      0.00%      0.00% # Number of insts issued each cycle
system.switch_cpus1.iq.issued_per_cycle::0     29268196     34.50%     34.50% # Number of insts issued each cycle
system.switch_cpus1.iq.issued_per_cycle::1     15864582     18.70%     53.19% # Number of insts issued each cycle
system.switch_cpus1.iq.issued_per_cycle::2     13805606     16.27%     69.46% # Number of insts issued each cycle
system.switch_cpus1.iq.issued_per_cycle::3      8473267      9.99%     79.45% # Number of insts issued each cycle
system.switch_cpus1.iq.issued_per_cycle::4      8875090     10.46%     89.91% # Number of insts issued each cycle
system.switch_cpus1.iq.issued_per_cycle::5      5220867      6.15%     96.06% # Number of insts issued each cycle
system.switch_cpus1.iq.issued_per_cycle::6      2303977      2.72%     98.78% # Number of insts issued each cycle
system.switch_cpus1.iq.issued_per_cycle::7       613060      0.72%     99.50% # Number of insts issued each cycle
system.switch_cpus1.iq.issued_per_cycle::8       422671      0.50%    100.00% # Number of insts issued each cycle
system.switch_cpus1.iq.issued_per_cycle::overflows            0      0.00%    100.00% # Number of insts issued each cycle
system.switch_cpus1.iq.issued_per_cycle::min_value            0                       # Number of insts issued each cycle
system.switch_cpus1.iq.issued_per_cycle::max_value            8                       # Number of insts issued each cycle
system.switch_cpus1.iq.issued_per_cycle::total     84847316                       # Number of insts issued each cycle
system.switch_cpus1.iq.fu_full::No_OpClass            0      0.00%      0.00% # attempts to use FU when none available
system.switch_cpus1.iq.fu_full::IntAlu         596871     66.23%     66.23% # attempts to use FU when none available
system.switch_cpus1.iq.fu_full::IntMult             0      0.00%     66.23% # attempts to use FU when none available
system.switch_cpus1.iq.fu_full::IntDiv              0      0.00%     66.23% # attempts to use FU when none available
system.switch_cpus1.iq.fu_full::FloatAdd            0      0.00%     66.23% # attempts to use FU when none available
system.switch_cpus1.iq.fu_full::FloatCmp            0      0.00%     66.23% # attempts to use FU when none available
system.switch_cpus1.iq.fu_full::FloatCvt            0      0.00%     66.23% # attempts to use FU when none available
system.switch_cpus1.iq.fu_full::FloatMult            0      0.00%     66.23% # attempts to use FU when none available
system.switch_cpus1.iq.fu_full::FloatDiv            0      0.00%     66.23% # attempts to use FU when none available
system.switch_cpus1.iq.fu_full::FloatSqrt            0      0.00%     66.23% # attempts to use FU when none available
system.switch_cpus1.iq.fu_full::SimdAdd             0      0.00%     66.23% # attempts to use FU when none available
system.switch_cpus1.iq.fu_full::SimdAddAcc            0      0.00%     66.23% # attempts to use FU when none available
system.switch_cpus1.iq.fu_full::SimdAlu             0      0.00%     66.23% # attempts to use FU when none available
system.switch_cpus1.iq.fu_full::SimdCmp             0      0.00%     66.23% # attempts to use FU when none available
system.switch_cpus1.iq.fu_full::SimdCvt             0      0.00%     66.23% # attempts to use FU when none available
system.switch_cpus1.iq.fu_full::SimdMisc            0      0.00%     66.23% # attempts to use FU when none available
system.switch_cpus1.iq.fu_full::SimdMult            0      0.00%     66.23% # attempts to use FU when none available
system.switch_cpus1.iq.fu_full::SimdMultAcc            0      0.00%     66.23% # attempts to use FU when none available
system.switch_cpus1.iq.fu_full::SimdShift            0      0.00%     66.23% # attempts to use FU when none available
system.switch_cpus1.iq.fu_full::SimdShiftAcc            0      0.00%     66.23% # attempts to use FU when none available
system.switch_cpus1.iq.fu_full::SimdSqrt            0      0.00%     66.23% # attempts to use FU when none available
system.switch_cpus1.iq.fu_full::SimdFloatAdd            0      0.00%     66.23% # attempts to use FU when none available
system.switch_cpus1.iq.fu_full::SimdFloatAlu            0      0.00%     66.23% # attempts to use FU when none available
system.switch_cpus1.iq.fu_full::SimdFloatCmp            0      0.00%     66.23% # attempts to use FU when none available
system.switch_cpus1.iq.fu_full::SimdFloatCvt            0      0.00%     66.23% # attempts to use FU when none available
system.switch_cpus1.iq.fu_full::SimdFloatDiv            0      0.00%     66.23% # attempts to use FU when none available
system.switch_cpus1.iq.fu_full::SimdFloatMisc            0      0.00%     66.23% # attempts to use FU when none available
system.switch_cpus1.iq.fu_full::SimdFloatMult            0      0.00%     66.23% # attempts to use FU when none available
system.switch_cpus1.iq.fu_full::SimdFloatMultAcc            0      0.00%     66.23% # attempts to use FU when none available
system.switch_cpus1.iq.fu_full::SimdFloatSqrt            0      0.00%     66.23% # attempts to use FU when none available
system.switch_cpus1.iq.fu_full::MemRead        192744     21.39%     87.62% # attempts to use FU when none available
system.switch_cpus1.iq.fu_full::MemWrite       111580     12.38%    100.00% # attempts to use FU when none available
system.switch_cpus1.iq.fu_full::IprAccess            0      0.00%    100.00% # attempts to use FU when none available
system.switch_cpus1.iq.fu_full::InstPrefetch            0      0.00%    100.00% # attempts to use FU when none available
system.switch_cpus1.iq.FU_type_0::No_OpClass            0      0.00%      0.00% # Type of FU issued
system.switch_cpus1.iq.FU_type_0::IntAlu    119195397     78.42%     78.42% # Type of FU issued
system.switch_cpus1.iq.FU_type_0::IntMult      1196770      0.79%     79.21% # Type of FU issued
system.switch_cpus1.iq.FU_type_0::IntDiv            0      0.00%     79.21% # Type of FU issued
system.switch_cpus1.iq.FU_type_0::FloatAdd            0      0.00%     79.21% # Type of FU issued
system.switch_cpus1.iq.FU_type_0::FloatCmp            0      0.00%     79.21% # Type of FU issued
system.switch_cpus1.iq.FU_type_0::FloatCvt            0      0.00%     79.21% # Type of FU issued
system.switch_cpus1.iq.FU_type_0::FloatMult            0      0.00%     79.21% # Type of FU issued
system.switch_cpus1.iq.FU_type_0::FloatDiv            0      0.00%     79.21% # Type of FU issued
system.switch_cpus1.iq.FU_type_0::FloatSqrt            0      0.00%     79.21% # Type of FU issued
system.switch_cpus1.iq.FU_type_0::SimdAdd            0      0.00%     79.21% # Type of FU issued
system.switch_cpus1.iq.FU_type_0::SimdAddAcc            0      0.00%     79.21% # Type of FU issued
system.switch_cpus1.iq.FU_type_0::SimdAlu            0      0.00%     79.21% # Type of FU issued
system.switch_cpus1.iq.FU_type_0::SimdCmp            0      0.00%     79.21% # Type of FU issued
system.switch_cpus1.iq.FU_type_0::SimdCvt            0      0.00%     79.21% # Type of FU issued
system.switch_cpus1.iq.FU_type_0::SimdMisc            0      0.00%     79.21% # Type of FU issued
system.switch_cpus1.iq.FU_type_0::SimdMult            0      0.00%     79.21% # Type of FU issued
system.switch_cpus1.iq.FU_type_0::SimdMultAcc            0      0.00%     79.21% # Type of FU issued
system.switch_cpus1.iq.FU_type_0::SimdShift            0      0.00%     79.21% # Type of FU issued
system.switch_cpus1.iq.FU_type_0::SimdShiftAcc            0      0.00%     79.21% # Type of FU issued
system.switch_cpus1.iq.FU_type_0::SimdSqrt            0      0.00%     79.21% # Type of FU issued
system.switch_cpus1.iq.FU_type_0::SimdFloatAdd            0      0.00%     79.21% # Type of FU issued
system.switch_cpus1.iq.FU_type_0::SimdFloatAlu            0      0.00%     79.21% # Type of FU issued
system.switch_cpus1.iq.FU_type_0::SimdFloatCmp            0      0.00%     79.21% # Type of FU issued
system.switch_cpus1.iq.FU_type_0::SimdFloatCvt            0      0.00%     79.21% # Type of FU issued
system.switch_cpus1.iq.FU_type_0::SimdFloatDiv            0      0.00%     79.21% # Type of FU issued
system.switch_cpus1.iq.FU_type_0::SimdFloatMisc        10941      0.01%     79.21% # Type of FU issued
system.switch_cpus1.iq.FU_type_0::SimdFloatMult            0      0.00%     79.21% # Type of FU issued
system.switch_cpus1.iq.FU_type_0::SimdFloatMultAcc            0      0.00%     79.21% # Type of FU issued
system.switch_cpus1.iq.FU_type_0::SimdFloatSqrt            0      0.00%     79.21% # Type of FU issued
system.switch_cpus1.iq.FU_type_0::MemRead     26188498     17.23%     96.44% # Type of FU issued
system.switch_cpus1.iq.FU_type_0::MemWrite      5405334      3.56%    100.00% # Type of FU issued
system.switch_cpus1.iq.FU_type_0::IprAccess            0      0.00%    100.00% # Type of FU issued
system.switch_cpus1.iq.FU_type_0::InstPrefetch            0      0.00%    100.00% # Type of FU issued
system.switch_cpus1.iq.FU_type_0::total     151996940                       # Type of FU issued
system.switch_cpus1.iq.rate                  1.768731                       # Inst issue rate
system.switch_cpus1.iq.fu_busy_cnt             901195                       # FU busy when requested
system.switch_cpus1.iq.fu_busy_rate          0.005929                       # FU busy rate (busy events/executed inst)
system.switch_cpus1.iq.int_inst_queue_reads    389944581                       # Number of integer instruction queue reads
system.switch_cpus1.iq.int_inst_queue_writes    234035982                       # Number of integer instruction queue writes
system.switch_cpus1.iq.int_inst_queue_wakeup_accesses    147047672                       # Number of integer instruction queue wakeup accesses
system.switch_cpus1.iq.fp_inst_queue_reads            0                       # Number of floating instruction queue reads
system.switch_cpus1.iq.fp_inst_queue_writes            0                       # Number of floating instruction queue writes
system.switch_cpus1.iq.fp_inst_queue_wakeup_accesses            0                       # Number of floating instruction queue wakeup accesses
system.switch_cpus1.iq.int_alu_accesses     152898135                       # Number of integer alu accesses
system.switch_cpus1.iq.fp_alu_accesses              0                       # Number of floating point alu accesses
system.switch_cpus1.iew.lsq.thread0.forwLoads       371107                       # Number of loads that had data forwarded from stores
system.switch_cpus1.iew.lsq.thread0.invAddrLoads            0                       # Number of loads ignored due to an invalid address
system.switch_cpus1.iew.lsq.thread0.squashedLoads      8361678                       # Number of loads squashed
system.switch_cpus1.iew.lsq.thread0.ignoredResponses          863                       # Number of memory responses ignored because the instruction is squashed
system.switch_cpus1.iew.lsq.thread0.memOrderViolation          467                       # Number of memory ordering violations
system.switch_cpus1.iew.lsq.thread0.squashedStores      1555384                       # Number of stores squashed
system.switch_cpus1.iew.lsq.thread0.invAddrSwpfs            0                       # Number of software prefetches ignored due to an invalid address
system.switch_cpus1.iew.lsq.thread0.blockedLoads            0                       # Number of blocked loads due to partial load-store forwarding
system.switch_cpus1.iew.lsq.thread0.rescheduledLoads            0                       # Number of loads that were rescheduled
system.switch_cpus1.iew.lsq.thread0.cacheBlocked            0                       # Number of times an access to memory failed due to the cache being blocked
system.switch_cpus1.iew.iewIdleCycles               0                       # Number of cycles IEW is idle
system.switch_cpus1.iew.iewSquashCycles       7751717                       # Number of cycles IEW is squashing
system.switch_cpus1.iew.iewBlockCycles         710223                       # Number of cycles IEW is blocking
system.switch_cpus1.iew.iewUnblockCycles        63184                       # Number of cycles IEW is unblocking
system.switch_cpus1.iew.iewDispatchedInsts    180072031                       # Number of instructions dispatched to IQ
system.switch_cpus1.iew.iewDispSquashedInsts       211065                       # Number of squashed instructions skipped by dispatch
system.switch_cpus1.iew.iewDispLoadInsts     29300054                       # Number of dispatched load instructions
system.switch_cpus1.iew.iewDispStoreInsts      6360252                       # Number of dispatched store instructions
system.switch_cpus1.iew.iewDispNonSpecInsts        10953                       # Number of dispatched non-speculative instructions
system.switch_cpus1.iew.iewIQFullEvents         33721                       # Number of times the IQ has become full, causing a stall
system.switch_cpus1.iew.iewLSQFullEvents          228                       # Number of times the LSQ has become full, causing a stall
system.switch_cpus1.iew.memOrderViolationEvents          467                       # Number of memory order violations
system.switch_cpus1.iew.predictedTakenIncorrect      1059269                       # Number of branches that were predicted taken incorrectly
system.switch_cpus1.iew.predictedNotTakenIncorrect      1169370                       # Number of branches that were predicted not taken incorrectly
system.switch_cpus1.iew.branchMispredicts      2228639                       # Number of branch mispredicts detected at execute
system.switch_cpus1.iew.iewExecutedInsts    149164606                       # Number of executed instructions
system.switch_cpus1.iew.iewExecLoadInsts     25173448                       # Number of load instructions executed
system.switch_cpus1.iew.iewExecSquashedInsts      2832332                       # Number of squashed instructions skipped in execute
system.switch_cpus1.iew.exec_swp                    0                       # number of swp insts executed
system.switch_cpus1.iew.exec_nop                    0                       # number of nop insts executed
system.switch_cpus1.iew.exec_refs            30446893                       # number of memory reference insts executed
system.switch_cpus1.iew.exec_branches        22549460                       # Number of branches executed
system.switch_cpus1.iew.exec_stores           5273445                       # Number of stores executed
system.switch_cpus1.iew.exec_rate            1.735772                       # Inst execution rate
system.switch_cpus1.iew.wb_sent             147211655                       # cumulative count of insts sent to commit
system.switch_cpus1.iew.wb_count            147047672                       # cumulative count of insts written-back
system.switch_cpus1.iew.wb_producers         90348141                       # num instructions producing a value
system.switch_cpus1.iew.wb_consumers        220409894                       # num instructions consuming a value
system.switch_cpus1.iew.wb_penalized                0                       # number of instrctions required to write to 'other' IQ
system.switch_cpus1.iew.wb_rate              1.711138                       # insts written-back per cycle
system.switch_cpus1.iew.wb_fanout            0.409910                       # average fanout of values written-back
system.switch_cpus1.iew.wb_penalized_rate            0                       # fraction of instructions written-back that wrote to 'other' IQ
system.switch_cpus1.commit.commitCommittedInsts    110470853                       # The number of committed instructions
system.switch_cpus1.commit.commitCommittedOps    125480053                       # The number of committed instructions
system.switch_cpus1.commit.commitSquashedInsts     54592700                       # The number of squashed insts skipped by commit
system.switch_cpus1.commit.commitNonSpecStalls        21880                       # The number of times commit has been forced to stall to communicate backwards
system.switch_cpus1.commit.branchMispredicts      1991924                       # The number of times a branch was mispredicted
system.switch_cpus1.commit.committed_per_cycle::samples     77095599                       # Number of insts commited each cycle
system.switch_cpus1.commit.committed_per_cycle::mean     1.627590                       # Number of insts commited each cycle
system.switch_cpus1.commit.committed_per_cycle::stdev     2.321813                       # Number of insts commited each cycle
system.switch_cpus1.commit.committed_per_cycle::underflows            0      0.00%      0.00% # Number of insts commited each cycle
system.switch_cpus1.commit.committed_per_cycle::0     35356474     45.86%     45.86% # Number of insts commited each cycle
system.switch_cpus1.commit.committed_per_cycle::1     16383183     21.25%     67.11% # Number of insts commited each cycle
system.switch_cpus1.commit.committed_per_cycle::2      9171358     11.90%     79.01% # Number of insts commited each cycle
system.switch_cpus1.commit.committed_per_cycle::3      3103306      4.03%     83.03% # Number of insts commited each cycle
system.switch_cpus1.commit.committed_per_cycle::4      2971982      3.85%     86.89% # Number of insts commited each cycle
system.switch_cpus1.commit.committed_per_cycle::5      1237040      1.60%     88.49% # Number of insts commited each cycle
system.switch_cpus1.commit.committed_per_cycle::6      3321039      4.31%     92.80% # Number of insts commited each cycle
system.switch_cpus1.commit.committed_per_cycle::7       964862      1.25%     94.05% # Number of insts commited each cycle
system.switch_cpus1.commit.committed_per_cycle::8      4586355      5.95%    100.00% # Number of insts commited each cycle
system.switch_cpus1.commit.committed_per_cycle::overflows            0      0.00%    100.00% # Number of insts commited each cycle
system.switch_cpus1.commit.committed_per_cycle::min_value            0                       # Number of insts commited each cycle
system.switch_cpus1.commit.committed_per_cycle::max_value            8                       # Number of insts commited each cycle
system.switch_cpus1.commit.committed_per_cycle::total     77095599                       # Number of insts commited each cycle
system.switch_cpus1.commit.committedInsts    110470853                       # Number of instructions committed
system.switch_cpus1.commit.committedOps     125480053                       # Number of ops (including micro ops) committed
system.switch_cpus1.commit.swp_count                0                       # Number of s/w prefetches committed
system.switch_cpus1.commit.refs              25743244                       # Number of memory references committed
[...]
system.cpu2.icache.ReadReq_miss_latency::switch_cpus2.inst       754781                       # number of ReadReq miss cycles
system.cpu2.icache.ReadReq_miss_latency::total       754781                       # number of ReadReq miss cycles
system.cpu2.icache.demand_miss_latency::switch_cpus2.inst       754781                       # number of demand (read+write) miss cycles
system.cpu2.icache.demand_miss_latency::total       754781                       # number of demand (read+write) miss cycles
system.cpu2.icache.overall_miss_latency::switch_cpus2.inst       754781                       # number of overall miss cycles
system.cpu2.icache.overall_miss_latency::total       754781                       # number of overall miss cycles
system.cpu2.icache.ReadReq_accesses::switch_cpus2.inst     15683657                       # number of ReadReq accesses(hits+misses)
system.cpu2.icache.ReadReq_accesses::total     15683657                       # number of ReadReq accesses(hits+misses)
system.cpu2.icache.demand_accesses::switch_cpus2.inst     15683657                       # number of demand (read+write) accesses
system.cpu2.icache.demand_accesses::total     15683657                       # number of demand (read+write) accesses
system.cpu2.icache.overall_accesses::switch_cpus2.inst     15683657                       # number of overall (read+write) accesses
system.cpu2.icache.overall_accesses::total     15683657                       # number of overall (read+write) accesses
system.cpu2.icache.ReadReq_miss_rate::switch_cpus2.inst     0.000001                       # miss rate for ReadReq accesses
system.cpu2.icache.ReadReq_miss_rate::total     0.000001                       # miss rate for ReadReq accesses
system.cpu2.icache.demand_miss_rate::switch_cpus2.inst     0.000001                       # miss rate for demand accesses
system.cpu2.icache.demand_miss_rate::total     0.000001                       # miss rate for demand accesses
system.cpu2.icache.overall_miss_rate::switch_cpus2.inst     0.000001                       # miss rate for overall accesses
system.cpu2.icache.overall_miss_rate::total     0.000001                       # miss rate for overall accesses
system.cpu2.icache.ReadReq_avg_miss_latency::switch_cpus2.inst 41932.277778                       # average ReadReq miss latency
system.cpu2.icache.ReadReq_avg_miss_latency::total 41932.277778                       # average ReadReq miss latency
system.cpu2.icache.demand_avg_miss_latency::switch_cpus2.inst 41932.277778                       # average overall miss latency
system.cpu2.icache.demand_avg_miss_latency::total 41932.277778                       # average overall miss latency
system.cpu2.icache.overall_avg_miss_latency::switch_cpus2.inst 41932.277778                       # average overall miss latency
system.cpu2.icache.overall_avg_miss_latency::total 41932.277778                       # average overall miss latency
system.cpu2.icache.blocked_cycles::no_mshrs            0                       # number of cycles access was blocked
system.cpu2.icache.blocked_cycles::no_targets            0                       # number of cycles access was blocked
system.cpu2.icache.blocked::no_mshrs                0                       # number of cycles access was blocked
system.cpu2.icache.blocked::no_targets              0                       # number of cycles access was blocked
system.cpu2.icache.avg_blocked_cycles::no_mshrs          nan                       # average number of cycles each access was blocked
system.cpu2.icache.avg_blocked_cycles::no_targets          nan                       # average number of cycles each access was blocked
system.cpu2.icache.fast_writes                      0                       # number of fast writes performed
system.cpu2.icache.cache_copies                     0                       # number of cache copies performed
system.cpu2.icache.ReadReq_mshr_hits::switch_cpus2.inst            3                       # number of ReadReq MSHR hits
system.cpu2.icache.ReadReq_mshr_hits::total            3                       # number of ReadReq MSHR hits
system.cpu2.icache.demand_mshr_hits::switch_cpus2.inst            3                       # number of demand (read+write) MSHR hits
system.cpu2.icache.demand_mshr_hits::total            3                       # number of demand (read+write) MSHR hits
system.cpu2.icache.overall_mshr_hits::switch_cpus2.inst            3                       # number of overall MSHR hits
system.cpu2.icache.overall_mshr_hits::total            3                       # number of overall MSHR hits
system.cpu2.icache.ReadReq_mshr_misses::switch_cpus2.inst           15                       # number of ReadReq MSHR misses
system.cpu2.icache.ReadReq_mshr_misses::total           15                       # number of ReadReq MSHR misses
system.cpu2.icache.demand_mshr_misses::switch_cpus2.inst           15                       # number of demand (read+write) MSHR misses
system.cpu2.icache.demand_mshr_misses::total           15                       # number of demand (read+write) MSHR misses
system.cpu2.icache.overall_mshr_misses::switch_cpus2.inst           15                       # number of overall MSHR misses
system.cpu2.icache.overall_mshr_misses::total           15                       # number of overall MSHR misses
system.cpu2.icache.ReadReq_mshr_miss_latency::switch_cpus2.inst       606723                       # number of ReadReq MSHR miss cycles
system.cpu2.icache.ReadReq_mshr_miss_latency::total       606723                       # number of ReadReq MSHR miss cycles
system.cpu2.icache.demand_mshr_miss_latency::switch_cpus2.inst       606723                       # number of demand (read+write) MSHR miss cycles
system.cpu2.icache.demand_mshr_miss_latency::total       606723                       # number of demand (read+write) MSHR miss cycles
system.cpu2.icache.overall_mshr_miss_latency::switch_cpus2.inst       606723                       # number of overall MSHR miss cycles
system.cpu2.icache.overall_mshr_miss_latency::total       606723                       # number of overall MSHR miss cycles
system.cpu2.icache.ReadReq_mshr_miss_rate::switch_cpus2.inst     0.000001                       # mshr miss rate for ReadReq accesses
system.cpu2.icache.ReadReq_mshr_miss_rate::total     0.000001                       # mshr miss rate for ReadReq accesses
system.cpu2.icache.demand_mshr_miss_rate::switch_cpus2.inst     0.000001                       # mshr miss rate for demand accesses
system.cpu2.icache.demand_mshr_miss_rate::total     0.000001                       # mshr miss rate for demand accesses
system.cpu2.icache.overall_mshr_miss_rate::switch_cpus2.inst     0.000001                       # mshr miss rate for overall accesses
system.cpu2.icache.overall_mshr_miss_rate::total     0.000001                       # mshr miss rate for overall accesses
system.cpu2.icache.ReadReq_avg_mshr_miss_latency::switch_cpus2.inst 40448.200000                       # average ReadReq mshr miss latency
system.cpu2.icache.ReadReq_avg_mshr_miss_latency::total 40448.200000                       # average ReadReq mshr miss latency
system.cpu2.icache.demand_avg_mshr_miss_latency::switch_cpus2.inst 40448.200000                       # average overall mshr miss latency
system.cpu2.icache.demand_avg_mshr_miss_latency::total 40448.200000                       # average overall mshr miss latency
system.cpu2.icache.overall_avg_mshr_miss_latency::switch_cpus2.inst 40448.200000                       # average overall mshr miss latency
system.cpu2.icache.overall_avg_mshr_miss_latency::total 40448.200000                       # average overall mshr miss latency
system.cpu2.icache.no_allocate_misses               0                       # Number of misses that were no-allocate
system.cpu2.dcache.replacements                 39586                       # number of replacements
system.cpu2.dcache.tagsinuse                      256                       # Cycle average of tags in use
system.cpu2.dcache.total_refs               169269481                       # Total number of references to valid blocks.
system.cpu2.dcache.sampled_refs                 39842                       # Sample count of references to valid blocks.
system.cpu2.dcache.avg_refs               4248.518674                       # Average number of references to valid blocks.
system.cpu2.dcache.warmup_cycle                     0                       # Cycle when the warmup percentage was hit.
system.cpu2.dcache.occ_blocks::switch_cpus2.data   231.759415                       # Average occupied blocks per requestor
system.cpu2.dcache.occ_blocks::cpu2.data    24.240585                       # Average occupied blocks per requestor
system.cpu2.dcache.occ_percent::switch_cpus2.data     0.905310                       # Average percentage of cache occupancy
system.cpu2.dcache.occ_percent::cpu2.data     0.094690                       # Average percentage of cache occupancy
system.cpu2.dcache.occ_percent::total               1                       # Average percentage of cache occupancy
system.cpu2.dcache.ReadReq_hits::switch_cpus2.data     10694773                       # number of ReadReq hits
system.cpu2.dcache.ReadReq_hits::total       10694773                       # number of ReadReq hits
system.cpu2.dcache.WriteReq_hits::switch_cpus2.data      7212454                       # number of WriteReq hits
system.cpu2.dcache.WriteReq_hits::total       7212454                       # number of WriteReq hits
system.cpu2.dcache.LoadLockedReq_hits::switch_cpus2.data        17278                       # number of LoadLockedReq hits
system.cpu2.dcache.LoadLockedReq_hits::total        17278                       # number of LoadLockedReq hits
system.cpu2.dcache.StoreCondReq_hits::switch_cpus2.data        17278                       # number of StoreCondReq hits
system.cpu2.dcache.StoreCondReq_hits::total        17278                       # number of StoreCondReq hits
system.cpu2.dcache.demand_hits::switch_cpus2.data     17907227                       # number of demand (read+write) hits
system.cpu2.dcache.demand_hits::total        17907227                       # number of demand (read+write) hits
system.cpu2.dcache.overall_hits::switch_cpus2.data     17907227                       # number of overall hits
system.cpu2.dcache.overall_hits::total       17907227                       # number of overall hits
system.cpu2.dcache.ReadReq_misses::switch_cpus2.data       103356                       # number of ReadReq misses
system.cpu2.dcache.ReadReq_misses::total       103356                       # number of ReadReq misses
system.cpu2.dcache.demand_misses::switch_cpus2.data       103356                       # number of demand (read+write) misses
system.cpu2.dcache.demand_misses::total        103356                       # number of demand (read+write) misses
system.cpu2.dcache.overall_misses::switch_cpus2.data       103356                       # number of overall misses
system.cpu2.dcache.overall_misses::total       103356                       # number of overall misses
system.cpu2.dcache.ReadReq_miss_latency::switch_cpus2.data   3319986632                       # number of ReadReq miss cycles
system.cpu2.dcache.ReadReq_miss_latency::total   3319986632                       # number of ReadReq miss cycles
system.cpu2.dcache.demand_miss_latency::switch_cpus2.data   3319986632                       # number of demand (read+write) miss cycles
system.cpu2.dcache.demand_miss_latency::total   3319986632                       # number of demand (read+write) miss cycles
system.cpu2.dcache.overall_miss_latency::switch_cpus2.data   3319986632                       # number of overall miss cycles
system.cpu2.dcache.overall_miss_latency::total   3319986632                       # number of overall miss cycles
system.cpu2.dcache.ReadReq_accesses::switch_cpus2.data     10798129                       # number of ReadReq accesses(hits+misses)
system.cpu2.dcache.ReadReq_accesses::total     10798129                       # number of ReadReq accesses(hits+misses)
system.cpu2.dcache.WriteReq_accesses::switch_cpus2.data      7212454                       # number of WriteReq accesses(hits+misses)
system.cpu2.dcache.WriteReq_accesses::total      7212454                       # number of WriteReq accesses(hits+misses)
system.cpu2.dcache.LoadLockedReq_accesses::switch_cpus2.data        17278                       # number of LoadLockedReq accesses(hits+misses)
system.cpu2.dcache.LoadLockedReq_accesses::total        17278                       # number of LoadLockedReq accesses(hits+misses)
system.cpu2.dcache.StoreCondReq_accesses::switch_cpus2.data        17278                       # number of StoreCondReq accesses(hits+misses)
system.cpu2.dcache.StoreCondReq_accesses::total        17278                       # number of StoreCondReq accesses(hits+misses)
system.cpu2.dcache.demand_accesses::switch_cpus2.data     18010583                       # number of demand (read+write) accesses
system.cpu2.dcache.demand_accesses::total     18010583                       # number of demand (read+write) accesses
system.cpu2.dcache.overall_accesses::switch_cpus2.data     18010583                       # number of overall (read+write) accesses
system.cpu2.dcache.overall_accesses::total     18010583                       # number of overall (read+write) accesses
system.cpu2.dcache.ReadReq_miss_rate::switch_cpus2.data     0.009572                       # miss rate for ReadReq accesses
system.cpu2.dcache.ReadReq_miss_rate::total     0.009572                       # miss rate for ReadReq accesses
system.cpu2.dcache.demand_miss_rate::switch_cpus2.data     0.005739                       # miss rate for demand accesses
system.cpu2.dcache.demand_miss_rate::total     0.005739                       # miss rate for demand accesses
system.cpu2.dcache.overall_miss_rate::switch_cpus2.data     0.005739                       # miss rate for overall accesses
system.cpu2.dcache.overall_miss_rate::total     0.005739                       # miss rate for overall accesses
system.cpu2.dcache.ReadReq_avg_miss_latency::switch_cpus2.data 32121.856806                       # average ReadReq miss latency
system.cpu2.dcache.ReadReq_avg_miss_latency::total 32121.856806                       # average ReadReq miss latency
system.cpu2.dcache.demand_avg_miss_latency::switch_cpus2.data 32121.856806                       # average overall miss latency
system.cpu2.dcache.demand_avg_miss_latency::total 32121.856806                       # average overall miss latency
system.cpu2.dcache.overall_avg_miss_latency::switch_cpus2.data 32121.856806                       # average overall miss latency
system.cpu2.dcache.overall_avg_miss_latency::total 32121.856806                       # average overall miss latency
system.cpu2.dcache.blocked_cycles::no_mshrs            0                       # number of cycles access was blocked
system.cpu2.dcache.blocked_cycles::no_targets            0                       # number of cycles access was blocked
system.cpu2.dcache.blocked::no_mshrs                0                       # number of cycles access was blocked
system.cpu2.dcache.blocked::no_targets              0                       # number of cycles access was blocked
system.cpu2.dcache.avg_blocked_cycles::no_mshrs          nan                       # average number of cycles each access was blocked
system.cpu2.dcache.avg_blocked_cycles::no_targets          nan                       # average number of cycles each access was blocked
system.cpu2.dcache.fast_writes                      0                       # number of fast writes performed
system.cpu2.dcache.cache_copies                     0                       # number of cache copies performed
system.cpu2.dcache.writebacks::writebacks         9081                       # number of writebacks
system.cpu2.dcache.writebacks::total             9081                       # number of writebacks
system.cpu2.dcache.ReadReq_mshr_hits::switch_cpus2.data        63770                       # number of ReadReq MSHR hits
system.cpu2.dcache.ReadReq_mshr_hits::total        63770                       # number of ReadReq MSHR hits
system.cpu2.dcache.demand_mshr_hits::switch_cpus2.data        63770                       # number of demand (read+write) MSHR hits
system.cpu2.dcache.demand_mshr_hits::total        63770                       # number of demand (read+write) MSHR hits
system.cpu2.dcache.overall_mshr_hits::switch_cpus2.data        63770                       # number of overall MSHR hits
system.cpu2.dcache.overall_mshr_hits::total        63770                       # number of overall MSHR hits
system.cpu2.dcache.ReadReq_mshr_misses::switch_cpus2.data        39586                       # number of ReadReq MSHR misses
system.cpu2.dcache.ReadReq_mshr_misses::total        39586                       # number of ReadReq MSHR misses
system.cpu2.dcache.demand_mshr_misses::switch_cpus2.data        39586                       # number of demand (read+write) MSHR misses
system.cpu2.dcache.demand_mshr_misses::total        39586                       # number of demand (read+write) MSHR misses
system.cpu2.dcache.overall_mshr_misses::switch_cpus2.data        39586                       # number of overall MSHR misses
system.cpu2.dcache.overall_mshr_misses::total        39586                       # number of overall MSHR misses
system.cpu2.dcache.ReadReq_mshr_miss_latency::switch_cpus2.data    583111383                       # number of ReadReq MSHR miss cycles
system.cpu2.dcache.ReadReq_mshr_miss_latency::total    583111383                       # number of ReadReq MSHR miss cycles
system.cpu2.dcache.demand_mshr_miss_latency::switch_cpus2.data    583111383                       # number of demand (read+write) MSHR miss cycles
system.cpu2.dcache.demand_mshr_miss_latency::total    583111383                       # number of demand (read+write) MSHR miss cycles
system.cpu2.dcache.overall_mshr_miss_latency::switch_cpus2.data    583111383                       # number of overall MSHR miss cycles
system.cpu2.dcache.overall_mshr_miss_latency::total    583111383                       # number of overall MSHR miss cycles
system.cpu2.dcache.ReadReq_mshr_miss_rate::switch_cpus2.data     0.003666                       # mshr miss rate for ReadReq accesses
system.cpu2.dcache.ReadReq_mshr_miss_rate::total     0.003666                       # mshr miss rate for ReadReq accesses
system.cpu2.dcache.demand_mshr_miss_rate::switch_cpus2.data     0.002198                       # mshr miss rate for demand accesses
system.cpu2.dcache.demand_mshr_miss_rate::total     0.002198                       # mshr miss rate for demand accesses
system.cpu2.dcache.overall_mshr_miss_rate::switch_cpus2.data     0.002198                       # mshr miss rate for overall accesses
system.cpu2.dcache.overall_mshr_miss_rate::total     0.002198                       # mshr miss rate for overall accesses
system.cpu2.dcache.ReadReq_avg_mshr_miss_latency::switch_cpus2.data 14730.242586                       # average ReadReq mshr miss latency
system.cpu2.dcache.ReadReq_avg_mshr_miss_latency::total 14730.242586                       # average ReadReq mshr miss latency
system.cpu2.dcache.demand_avg_mshr_miss_latency::switch_cpus2.data 14730.242586                       # average overall mshr miss latency
system.cpu2.dcache.demand_avg_mshr_miss_latency::total 14730.242586                       # average overall mshr miss latency
system.cpu2.dcache.overall_avg_mshr_miss_latency::switch_cpus2.data 14730.242586                       # average overall mshr miss latency
system.cpu2.dcache.overall_avg_mshr_miss_latency::total 14730.242586                       # average overall mshr miss latency
system.cpu2.dcache.no_allocate_misses               0                       # Number of misses that were no-allocate

---------- End Simulation Statistics   ----------
