
---------- Begin Simulation Statistics ----------
sim_seconds                                  0.101269                       # Number of seconds simulated
sim_ticks                                101269213944                       # Number of ticks simulated
final_tick                               628263111222                       # Number of ticks from beginning of simulation (restored from checkpoints and never reset)
sim_freq                                 1000000000000                       # Frequency of simulated ticks
host_inst_rate                                 191982                       # Simulator instruction rate (inst/s)
host_op_rate                                   242514                       # Simulator op (including micro ops) rate (op/s)
host_tick_rate                                5915777                       # Simulator tick rate (ticks/s)
host_mem_usage                               16907484                       # Number of bytes of host memory used
host_seconds                                 17118.50                       # Real time elapsed on the host
sim_insts                                  3286447619                       # Number of instructions simulated
sim_ops                                    4151480637                       # Number of ops (including micro ops) simulated
system.physmem.bytes_read::switch_cpus0.inst         1664                       # Number of bytes read from this memory
system.physmem.bytes_read::switch_cpus0.data      2416512                       # Number of bytes read from this memory
system.physmem.bytes_read::switch_cpus1.inst         1280                       # Number of bytes read from this memory
system.physmem.bytes_read::switch_cpus1.data      2125696                       # Number of bytes read from this memory
system.physmem.bytes_read::switch_cpus2.inst         1664                       # Number of bytes read from this memory
system.physmem.bytes_read::switch_cpus2.data       987392                       # Number of bytes read from this memory
system.physmem.bytes_read::total              5534208                       # Number of bytes read from this memory
system.physmem.bytes_inst_read::switch_cpus0.inst         1664                       # Number of instructions bytes read from this memory
system.physmem.bytes_inst_read::switch_cpus1.inst         1280                       # Number of instructions bytes read from this memory
system.physmem.bytes_inst_read::switch_cpus2.inst         1664                       # Number of instructions bytes read from this memory
system.physmem.bytes_inst_read::total            4608                       # Number of instructions bytes read from this memory
system.physmem.bytes_written::writebacks      1644160                       # Number of bytes written to this memory
system.physmem.bytes_written::total           1644160                       # Number of bytes written to this memory
system.physmem.num_reads::switch_cpus0.inst           13                       # Number of read requests responded to by this memory
system.physmem.num_reads::switch_cpus0.data        18879                       # Number of read requests responded to by this memory
system.physmem.num_reads::switch_cpus1.inst           10                       # Number of read requests responded to by this memory
system.physmem.num_reads::switch_cpus1.data        16607                       # Number of read requests responded to by this memory
system.physmem.num_reads::switch_cpus2.inst           13                       # Number of read requests responded to by this memory
system.physmem.num_reads::switch_cpus2.data         7714                       # Number of read requests responded to by this memory
system.physmem.num_reads::total                 43236                       # Number of read requests responded to by this memory
system.physmem.num_writes::writebacks           12845                       # Number of write requests responded to by this memory
system.physmem.num_writes::functional               0                       # Number of write requests responded to by this memory
system.physmem.num_writes::interrupt                0                       # Number of write requests responded to by this memory
system.physmem.num_writes::switch_cpus0.dtb.walker            0                       # Number of write requests responded to by this memory
system.physmem.num_writes::switch_cpus0.itb.walker            0                       # Number of write requests responded to by this memory
system.physmem.num_writes::switch_cpus0.inst            0                       # Number of write requests responded to by this memory
system.physmem.num_writes::switch_cpus0.data            0                       # Number of write requests responded to by this memory
system.physmem.num_writes::switch_cpus1.dtb.walker            0                       # Number of write requests responded to by this memory
system.physmem.num_writes::switch_cpus1.itb.walker            0                       # Number of write requests responded to by this memory
system.physmem.num_writes::switch_cpus1.inst            0                       # Number of write requests responded to by this memory
system.physmem.num_writes::switch_cpus1.data            0                       # Number of write requests responded to by this memory
system.physmem.num_writes::switch_cpus2.dtb.walker            0                       # Number of write requests responded to by this memory
system.physmem.num_writes::switch_cpus2.itb.walker            0                       # Number of write requests responded to by this memory
system.physmem.num_writes::switch_cpus2.inst            0                       # Number of write requests responded to by this memory
system.physmem.num_writes::switch_cpus2.data            0                       # Number of write requests responded to by this memory
system.physmem.num_writes::cpu0.dtb.walker            0                       # Number of write requests responded to by this memory
system.physmem.num_writes::cpu0.itb.walker            0                       # Number of write requests responded to by this memory
system.physmem.num_writes::cpu0.inst                0                       # Number of write requests responded to by this memory
system.physmem.num_writes::cpu0.data                0                       # Number of write requests responded to by this memory
system.physmem.num_writes::cpu1.dtb.walker            0                       # Number of write requests responded to by this memory
system.physmem.num_writes::cpu1.itb.walker            0                       # Number of write requests responded to by this memory
system.physmem.num_writes::cpu1.inst                0                       # Number of write requests responded to by this memory
system.physmem.num_writes::cpu1.data                0                       # Number of write requests responded to by this memory
system.physmem.num_writes::cpu2.dtb.walker            0                       # Number of write requests responded to by this memory
system.physmem.num_writes::cpu2.itb.walker            0                       # Number of write requests responded to by this memory
system.physmem.num_writes::cpu2.inst                0                       # Number of write requests responded to by this memory
system.physmem.num_writes::cpu2.data                0                       # Number of write requests responded to by this memory
system.physmem.num_writes::total                12845                       # Number of write requests responded to by this memory
system.physmem.bw_read::switch_cpus0.inst        16431                       # Total read bandwidth from this memory (bytes/s)
system.physmem.bw_read::switch_cpus0.data     23862257                       # Total read bandwidth from this memory (bytes/s)
system.physmem.bw_read::switch_cpus1.inst        12640                       # Total read bandwidth from this memory (bytes/s)
system.physmem.bw_read::switch_cpus1.data     20990545                       # Total read bandwidth from this memory (bytes/s)
system.physmem.bw_read::switch_cpus2.inst        16431                       # Total read bandwidth from this memory (bytes/s)
system.physmem.bw_read::switch_cpus2.data      9750169                       # Total read bandwidth from this memory (bytes/s)
system.physmem.bw_read::total                54648474                       # Total read bandwidth from this memory (bytes/s)
system.physmem.bw_inst_read::switch_cpus0.inst        16431                       # Instruction read bandwidth from this memory (bytes/s)
system.physmem.bw_inst_read::switch_cpus1.inst        12640                       # Instruction read bandwidth from this memory (bytes/s)
system.physmem.bw_inst_read::switch_cpus2.inst        16431                       # Instruction read bandwidth from this memory (bytes/s)
system.physmem.bw_inst_read::total              45502                       # Instruction read bandwidth from this memory (bytes/s)
system.physmem.bw_write::writebacks          16235536                       # Write bandwidth from this memory (bytes/s)
system.physmem.bw_write::total               16235536                       # Write bandwidth from this memory (bytes/s)
system.physmem.bw_total::writebacks          16235536                       # Total bandwidth to/from this memory (bytes/s)
system.physmem.bw_total::switch_cpus0.inst        16431                       # Total bandwidth to/from this memory (bytes/s)
system.physmem.bw_total::switch_cpus0.data     23862257                       # Total bandwidth to/from this memory (bytes/s)
system.physmem.bw_total::switch_cpus1.inst        12640                       # Total bandwidth to/from this memory (bytes/s)
system.physmem.bw_total::switch_cpus1.data     20990545                       # Total bandwidth to/from this memory (bytes/s)
system.physmem.bw_total::switch_cpus2.inst        16431                       # Total bandwidth to/from this memory (bytes/s)
system.physmem.bw_total::switch_cpus2.data      9750169                       # Total bandwidth to/from this memory (bytes/s)
system.physmem.bw_total::total               70884010                       # Total bandwidth to/from this memory (bytes/s)
system.switch_cpus0.dtb.inst_hits                   0                       # ITB inst hits
system.switch_cpus0.dtb.inst_misses                 0                       # ITB inst misses
system.switch_cpus0.dtb.read_hits                   0                       # DTB read hits
system.switch_cpus0.dtb.read_misses                 0                       # DTB read misses
system.switch_cpus0.dtb.write_hits                  0                       # DTB write hits
system.switch_cpus0.dtb.write_misses                0                       # DTB write misses
system.switch_cpus0.dtb.flush_tlb                   0                       # Number of times complete TLB was flushed
system.switch_cpus0.dtb.flush_tlb_mva               0                       # Number of times TLB was flushed by MVA
system.switch_cpus0.dtb.flush_tlb_mva_asid            0                       # Number of times TLB was flushed by MVA & ASID
system.switch_cpus0.dtb.flush_tlb_asid              0                       # Number of times TLB was flushed by ASID
system.switch_cpus0.dtb.flush_entries               0                       # Number of entries that have been flushed from TLB
system.switch_cpus0.dtb.align_faults                0                       # Number of TLB faults due to alignment restrictions
system.switch_cpus0.dtb.prefetch_faults             0                       # Number of TLB faults due to prefetch
system.switch_cpus0.dtb.domain_faults               0                       # Number of TLB faults due to domain restrictions
system.switch_cpus0.dtb.perms_faults                0                       # Number of TLB faults due to permissions restrictions
system.switch_cpus0.dtb.read_accesses               0                       # DTB read accesses
system.switch_cpus0.dtb.write_accesses              0                       # DTB write accesses
system.switch_cpus0.dtb.inst_accesses               0                       # ITB inst accesses
system.switch_cpus0.dtb.hits                        0                       # DTB hits
system.switch_cpus0.dtb.misses                      0                       # DTB misses
system.switch_cpus0.dtb.accesses                    0                       # DTB accesses
system.switch_cpus0.itb.inst_hits                   0                       # ITB inst hits
system.switch_cpus0.itb.inst_misses                 0                       # ITB inst misses
system.switch_cpus0.itb.read_hits                   0                       # DTB read hits
system.switch_cpus0.itb.read_misses                 0                       # DTB read misses
system.switch_cpus0.itb.write_hits                  0                       # DTB write hits
system.switch_cpus0.itb.write_misses                0                       # DTB write misses
system.switch_cpus0.itb.flush_tlb                   0                       # Number of times complete TLB was flushed
system.switch_cpus0.itb.flush_tlb_mva               0                       # Number of times TLB was flushed by MVA
system.switch_cpus0.itb.flush_tlb_mva_asid            0                       # Number of times TLB was flushed by MVA & ASID
system.switch_cpus0.itb.flush_tlb_asid              0                       # Number of times TLB was flushed by ASID
system.switch_cpus0.itb.flush_entries               0                       # Number of entries that have been flushed from TLB
system.switch_cpus0.itb.align_faults                0                       # Number of TLB faults due to alignment restrictions
system.switch_cpus0.itb.prefetch_faults             0                       # Number of TLB faults due to prefetch
system.switch_cpus0.itb.domain_faults               0                       # Number of TLB faults due to domain restrictions
system.switch_cpus0.itb.perms_faults                0                       # Number of TLB faults due to permissions restrictions
system.switch_cpus0.itb.read_accesses               0                       # DTB read accesses
system.switch_cpus0.itb.write_accesses              0                       # DTB write accesses
system.switch_cpus0.itb.inst_accesses               0                       # ITB inst accesses
system.switch_cpus0.itb.hits                        0                       # DTB hits
system.switch_cpus0.itb.misses                      0                       # DTB misses
system.switch_cpus0.itb.accesses                    0                       # DTB accesses
system.cpu0.workload.num_syscalls                   0                       # Number of system calls
system.switch_cpus0.numCycles               242851833                       # number of cpu cycles simulated
system.switch_cpus0.numWorkItemsStarted             0                       # number of work items this cpu started
system.switch_cpus0.numWorkItemsCompleted            0                       # number of work items this cpu completed
system.switch_cpus0.BPredUnit.lookups        21953438                       # Number of BP lookups
system.switch_cpus0.BPredUnit.condPredicted     17785875                       # Number of conditional branches predicted
system.switch_cpus0.BPredUnit.condIncorrect      2015981                       # Number of conditional branches incorrect
system.switch_cpus0.BPredUnit.BTBLookups      8974100                       # Number of BTB lookups
system.switch_cpus0.BPredUnit.BTBHits         8288932                       # Number of BTB hits
system.switch_cpus0.BPredUnit.BTBCorrect            0                       # Number of correct BTB predictions (this stat may not work properly.
system.switch_cpus0.BPredUnit.usedRAS         2466058                       # Number of times the RAS was used to get a target.
system.switch_cpus0.BPredUnit.RASInCorrect        91163                       # Number of incorrect RAS predictions.
system.switch_cpus0.fetch.icacheStallCycles    185672745                       # Number of cycles fetch is stalled on an Icache miss
system.switch_cpus0.fetch.Insts             121992810                       # Number of instructions fetch has processed
system.switch_cpus0.fetch.Branches           21953438                       # Number of branches that fetch encountered
system.switch_cpus0.fetch.predictedBranches     10754990                       # Number of branches that fetch has predicted taken
system.switch_cpus0.fetch.Cycles             26727815                       # Number of cycles fetch has run and was not squashing or blocked
system.switch_cpus0.fetch.SquashCycles        6178480                       # Number of cycles fetch has spent squashing
system.switch_cpus0.fetch.BlockedCycles       4510267                       # Number of cycles fetch has spent blocked
system.switch_cpus0.fetch.CacheLines         11623378                       # Number of cache lines fetched
system.switch_cpus0.fetch.IcacheSquashes      2015631                       # Number of outstanding Icache misses that were squashed
system.switch_cpus0.fetch.rateDist::samples    221028176                       # Number of instructions fetched each cycle (Total)
system.switch_cpus0.fetch.rateDist::mean     0.678301                       # Number of instructions fetched each cycle (Total)
system.switch_cpus0.fetch.rateDist::stdev     2.050350                       # Number of instructions fetched each cycle (Total)
system.switch_cpus0.fetch.rateDist::underflows            0      0.00%      0.00% # Number of instructions fetched each cycle (Total)
system.switch_cpus0.fetch.rateDist::0       194300361     87.91%     87.91% # Number of instructions fetched each cycle (Total)
system.switch_cpus0.fetch.rateDist::1         2488039      1.13%     89.03% # Number of instructions fetched each cycle (Total)
system.switch_cpus0.fetch.rateDist::2         1959710      0.89%     89.92% # Number of instructions fetched each cycle (Total)
system.switch_cpus0.fetch.rateDist::3         4590639      2.08%     92.00% # Number of instructions fetched each cycle (Total)
system.switch_cpus0.fetch.rateDist::4          998326      0.45%     92.45% # Number of instructions fetched each cycle (Total)
system.switch_cpus0.fetch.rateDist::5         1555759      0.70%     93.15% # Number of instructions fetched each cycle (Total)
system.switch_cpus0.fetch.rateDist::6         1183778      0.54%     93.69% # Number of instructions fetched each cycle (Total)
system.switch_cpus0.fetch.rateDist::7          742974      0.34%     94.02% # Number of instructions fetched each cycle (Total)
system.switch_cpus0.fetch.rateDist::8        13208590      5.98%    100.00% # Number of instructions fetched each cycle (Total)
system.switch_cpus0.fetch.rateDist::overflows            0      0.00%    100.00% # Number of instructions fetched each cycle (Total)
system.switch_cpus0.fetch.rateDist::min_value            0                       # Number of instructions fetched each cycle (Total)
system.switch_cpus0.fetch.rateDist::max_value            8                       # Number of instructions fetched each cycle (Total)
system.switch_cpus0.fetch.rateDist::total    221028176                       # Number of instructions fetched each cycle (Total)
system.switch_cpus0.fetch.branchRate         0.090398                       # Number of branch fetches per cycle
system.switch_cpus0.fetch.rate               0.502334                       # Number of inst fetches per cycle
system.switch_cpus0.decode.IdleCycles       183601928                       # Number of cycles decode is idle
system.switch_cpus0.decode.BlockedCycles      6641253                       # Number of cycles decode is blocked
system.switch_cpus0.decode.RunCycles         26621960                       # Number of cycles decode is running
system.switch_cpus0.decode.UnblockCycles        87317                       # Number of cycles decode is unblocking
system.switch_cpus0.decode.SquashCycles       4075712                       # Number of cycles decode is squashing
system.switch_cpus0.decode.BranchResolved      3784270                       # Number of times decode resolved a branch
system.switch_cpus0.decode.BranchMispred        42211                       # Number of times decode detected a branch misprediction
system.switch_cpus0.decode.DecodedInsts     149629429                       # Number of instructions handled by decode
system.switch_cpus0.decode.SquashedInsts        76411                       # Number of squashed instructions handled by decode
system.switch_cpus0.rename.SquashCycles       4075712                       # Number of cycles rename is squashing
system.switch_cpus0.rename.IdleCycles       184107649                       # Number of cycles rename is idle
system.switch_cpus0.rename.BlockCycles        1705422                       # Number of cycles rename is blocking
system.switch_cpus0.rename.serializeStallCycles      3498258                       # count of cycles rename stalled for serializing inst
system.switch_cpus0.rename.RunCycles         26173098                       # Number of cycles rename is running
system.switch_cpus0.rename.UnblockCycles      1468031                       # Number of cycles rename is unblocking
system.switch_cpus0.rename.RenamedInsts     149486852                       # Number of instructions processed by rename
system.switch_cpus0.rename.ROBFullEvents        25647                       # Number of times rename has blocked due to ROB full
system.switch_cpus0.rename.IQFullEvents        277364                       # Number of times rename has blocked due to IQ full
system.switch_cpus0.rename.LSQFullEvents       539906                       # Number of times rename has blocked due to LSQ full
system.switch_cpus0.rename.FullRegisterEvents       210338                       # Number of times there has been no free registers
system.switch_cpus0.rename.RenamedOperands    210284312                       # Number of destination operands rename has renamed
system.switch_cpus0.rename.RenameLookups    697519267                       # Number of register rename lookups that rename has made
system.switch_cpus0.rename.int_rename_lookups    697519267                       # Number of integer rename lookups
system.switch_cpus0.rename.CommittedMaps    170695495                       # Number of HB maps that are committed
system.switch_cpus0.rename.UndoneMaps        39588794                       # Number of HB maps that are undone due to squashing
system.switch_cpus0.rename.serializingInsts        37312                       # count of serializing insts renamed
system.switch_cpus0.rename.tempSerializingInsts        20774                       # count of temporary serializing insts renamed
system.switch_cpus0.rename.skidInsts          4739671                       # count of insts added to the skid buffer
system.switch_cpus0.memDep0.insertedLoads     14545102                       # Number of loads inserted to the mem dependence unit.
system.switch_cpus0.memDep0.insertedStores      7215829                       # Number of stores inserted to the mem dependence unit.
system.switch_cpus0.memDep0.conflictingLoads       131821                       # Number of conflicting loads.
system.switch_cpus0.memDep0.conflictingStores      1598973                       # Number of conflicting stores.
system.switch_cpus0.iq.iqInstsAdded         148413526                       # Number of instructions added to the IQ (excludes non-spec)
system.switch_cpus0.iq.iqNonSpecInstsAdded        37294                       # Number of non-speculative instructions added to the IQ
system.switch_cpus0.iq.iqInstsIssued        139385203                       # Number of instructions issued
system.switch_cpus0.iq.iqSquashedInstsIssued       143848                       # Number of squashed instructions issued
system.switch_cpus0.iq.iqSquashedInstsExamined     24798661                       # Number of squashed instructions iterated over during squash; mainly for profiling
system.switch_cpus0.iq.iqSquashedOperandsExamined     51658689                       # Number of squashed operands that are examined and possibly removed from graph
system.switch_cpus0.iq.iqSquashedNonSpecRemoved         4226                       # Number of squashed non-spec instructions that were removed
system.switch_cpus0.iq.issued_per_cycle::samples    221028176                       # Number of insts issued each cycle
system.switch_cpus0.iq.issued_per_cycle::mean     0.630622                       # Number of insts issued each cycle
system.switch_cpus0.iq.issued_per_cycle::stdev     1.301866                       # Number of insts issued each cycle
system.switch_cpus0.iq.issued_per_cycle::underflows            0      0.00%      0.00% # Number of insts issued each cycle
system.switch_cpus0.iq.issued_per_cycle::0    160935526     72.81%     72.81% # Number of insts issued each cycle
system.switch_cpus0.iq.issued_per_cycle::1     25759122     11.65%     84.47% # Number of insts issued each cycle
system.switch_cpus0.iq.issued_per_cycle::2     12488736      5.65%     90.12% # Number of insts issued each cycle
system.switch_cpus0.iq.issued_per_cycle::3      8336229      3.77%     93.89% # Number of insts issued each cycle
system.switch_cpus0.iq.issued_per_cycle::4      7727290      3.50%     97.38% # Number of insts issued each cycle
system.switch_cpus0.iq.issued_per_cycle::5      2594282      1.17%     98.56% # Number of insts issued each cycle
system.switch_cpus0.iq.issued_per_cycle::6      2678863      1.21%     99.77% # Number of insts issued each cycle
system.switch_cpus0.iq.issued_per_cycle::7       378850      0.17%     99.94% # Number of insts issued each cycle
system.switch_cpus0.iq.issued_per_cycle::8       129278      0.06%    100.00% # Number of insts issued each cycle
system.switch_cpus0.iq.issued_per_cycle::overflows            0      0.00%    100.00% # Number of insts issued each cycle
system.switch_cpus0.iq.issued_per_cycle::min_value            0                       # Number of insts issued each cycle
system.switch_cpus0.iq.issued_per_cycle::max_value            8                       # Number of insts issued each cycle
system.switch_cpus0.iq.issued_per_cycle::total    221028176                       # Number of insts issued each cycle
system.switch_cpus0.iq.fu_full::No_OpClass            0      0.00%      0.00% # attempts to use FU when none available
system.switch_cpus0.iq.fu_full::IntAlu         400849     59.13%     59.13% # attempts to use FU when none available
system.switch_cpus0.iq.fu_full::IntMult             0      0.00%     59.13% # attempts to use FU when none available
system.switch_cpus0.iq.fu_full::IntDiv              0      0.00%     59.13% # attempts to use FU when none available
system.switch_cpus0.iq.fu_full::FloatAdd            0      0.00%     59.13% # attempts to use FU when none available
system.switch_cpus0.iq.fu_full::FloatCmp            0      0.00%     59.13% # attempts to use FU when none available
system.switch_cpus0.iq.fu_full::FloatCvt            0      0.00%     59.13% # attempts to use FU when none available
system.switch_cpus0.iq.fu_full::FloatMult            0      0.00%     59.13% # attempts to use FU when none available
system.switch_cpus0.iq.fu_full::FloatDiv            0      0.00%     59.13% # attempts to use FU when none available
system.switch_cpus0.iq.fu_full::FloatSqrt            0      0.00%     59.13% # attempts to use FU when none available
system.switch_cpus0.iq.fu_full::SimdAdd             0      0.00%     59.13% # attempts to use FU when none available
system.switch_cpus0.iq.fu_full::SimdAddAcc            0      0.00%     59.13% # attempts to use FU when none available
system.switch_cpus0.iq.fu_full::SimdAlu             0      0.00%     59.13% # attempts to use FU when none available
system.switch_cpus0.iq.fu_full::SimdCmp             0      0.00%     59.13% # attempts to use FU when none available
system.switch_cpus0.iq.fu_full::SimdCvt             0      0.00%     59.13% # attempts to use FU when none available
system.switch_cpus0.iq.fu_full::SimdMisc            0      0.00%     59.13% # attempts to use FU when none available
system.switch_cpus0.iq.fu_full::SimdMult            0      0.00%     59.13% # attempts to use FU when none available
system.switch_cpus0.iq.fu_full::SimdMultAcc            0      0.00%     59.13% # attempts to use FU when none available
system.switch_cpus0.iq.fu_full::SimdShift            0      0.00%     59.13% # attempts to use FU when none available
system.switch_cpus0.iq.fu_full::SimdShiftAcc            0      0.00%     59.13% # attempts to use FU when none available
system.switch_cpus0.iq.fu_full::SimdSqrt            0      0.00%     59.13% # attempts to use FU when none available
system.switch_cpus0.iq.fu_full::SimdFloatAdd            0      0.00%     59.13% # attempts to use FU when none available
system.switch_cpus0.iq.fu_full::SimdFloatAlu            0      0.00%     59.13% # attempts to use FU when none available
system.switch_cpus0.iq.fu_full::SimdFloatCmp            0      0.00%     59.13% # attempts to use FU when none available
system.switch_cpus0.iq.fu_full::SimdFloatCvt            0      0.00%     59.13% # attempts to use FU when none available
system.switch_cpus0.iq.fu_full::SimdFloatDiv            0      0.00%     59.13% # attempts to use FU when none available
system.switch_cpus0.iq.fu_full::SimdFloatMisc            0      0.00%     59.13% # attempts to use FU when none available
system.switch_cpus0.iq.fu_full::SimdFloatMult            0      0.00%     59.13% # attempts to use FU when none available
system.switch_cpus0.iq.fu_full::SimdFloatMultAcc            0      0.00%     59.13% # attempts to use FU when none available
system.switch_cpus0.iq.fu_full::SimdFloatSqrt            0      0.00%     59.13% # attempts to use FU when none available
system.switch_cpus0.iq.fu_full::MemRead        138632     20.45%     79.58% # attempts to use FU when none available
system.switch_cpus0.iq.fu_full::MemWrite       138441     20.42%    100.00% # attempts to use FU when none available
system.switch_cpus0.iq.fu_full::IprAccess            0      0.00%    100.00% # attempts to use FU when none available
system.switch_cpus0.iq.fu_full::InstPrefetch            0      0.00%    100.00% # attempts to use FU when none available
system.switch_cpus0.iq.FU_type_0::No_OpClass            0      0.00%      0.00% # Type of FU issued
system.switch_cpus0.iq.FU_type_0::IntAlu    117075608     83.99%     83.99% # Type of FU issued
system.switch_cpus0.iq.FU_type_0::IntMult      2113143      1.52%     85.51% # Type of FU issued
system.switch_cpus0.iq.FU_type_0::IntDiv            0      0.00%     85.51% # Type of FU issued
system.switch_cpus0.iq.FU_type_0::FloatAdd            0      0.00%     85.51% # Type of FU issued
system.switch_cpus0.iq.FU_type_0::FloatCmp            0      0.00%     85.51% # Type of FU issued
system.switch_cpus0.iq.FU_type_0::FloatCvt            0      0.00%     85.51% # Type of FU issued
system.switch_cpus0.iq.FU_type_0::FloatMult            0      0.00%     85.51% # Type of FU issued
system.switch_cpus0.iq.FU_type_0::FloatDiv            0      0.00%     85.51% # Type of FU issued
system.switch_cpus0.iq.FU_type_0::FloatSqrt            0      0.00%     85.51% # Type of FU issued
system.switch_cpus0.iq.FU_type_0::SimdAdd            0      0.00%     85.51% # Type of FU issued
system.switch_cpus0.iq.FU_type_0::SimdAddAcc            0      0.00%     85.51% # Type of FU issued
system.switch_cpus0.iq.FU_type_0::SimdAlu            0      0.00%     85.51% # Type of FU issued
system.switch_cpus0.iq.FU_type_0::SimdCmp            0      0.00%     85.51% # Type of FU issued
system.switch_cpus0.iq.FU_type_0::SimdCvt            0      0.00%     85.51% # Type of FU issued
system.switch_cpus0.iq.FU_type_0::SimdMisc            0      0.00%     85.51% # Type of FU issued
system.switch_cpus0.iq.FU_type_0::SimdMult            0      0.00%     85.51% # Type of FU issued
system.switch_cpus0.iq.FU_type_0::SimdMultAcc            0      0.00%     85.51% # Type of FU issued
system.switch_cpus0.iq.FU_type_0::SimdShift            0      0.00%     85.51% # Type of FU issued
system.switch_cpus0.iq.FU_type_0::SimdShiftAcc            0      0.00%     85.51% # Type of FU issued
system.switch_cpus0.iq.FU_type_0::SimdSqrt            0      0.00%     85.51% # Type of FU issued
system.switch_cpus0.iq.FU_type_0::SimdFloatAdd            0      0.00%     85.51% # Type of FU issued
system.switch_cpus0.iq.FU_type_0::SimdFloatAlu            0      0.00%     85.51% # Type of FU issued
system.switch_cpus0.iq.FU_type_0::SimdFloatCmp            0      0.00%     85.51% # Type of FU issued
system.switch_cpus0.iq.FU_type_0::SimdFloatCvt            0      0.00%     85.51% # Type of FU issued
system.switch_cpus0.iq.FU_type_0::SimdFloatDiv            0      0.00%     85.51% # Type of FU issued
system.switch_cpus0.iq.FU_type_0::SimdFloatMisc        16534      0.01%     85.52% # Type of FU issued
system.switch_cpus0.iq.FU_type_0::SimdFloatMult            0      0.00%     85.52% # Type of FU issued
system.switch_cpus0.iq.FU_type_0::SimdFloatMultAcc            0      0.00%     85.52% # Type of FU issued
system.switch_cpus0.iq.FU_type_0::SimdFloatSqrt            0      0.00%     85.52% # Type of FU issued
system.switch_cpus0.iq.FU_type_0::MemRead     13021559      9.34%     94.86% # Type of FU issued
system.switch_cpus0.iq.FU_type_0::MemWrite      7158359      5.14%    100.00% # Type of FU issued
system.switch_cpus0.iq.FU_type_0::IprAccess            0      0.00%    100.00% # Type of FU issued
system.switch_cpus0.iq.FU_type_0::InstPrefetch            0      0.00%    100.00% # Type of FU issued
system.switch_cpus0.iq.FU_type_0::total     139385203                       # Type of FU issued
system.switch_cpus0.iq.rate                  0.573952                       # Inst issue rate
system.switch_cpus0.iq.fu_busy_cnt             677922                       # FU busy when requested
system.switch_cpus0.iq.fu_busy_rate          0.004864                       # FU busy rate (busy events/executed inst)
system.switch_cpus0.iq.int_inst_queue_reads    500620350                       # Number of integer instruction queue reads
system.switch_cpus0.iq.int_inst_queue_writes    173249954                       # Number of integer instruction queue writes
system.switch_cpus0.iq.int_inst_queue_wakeup_accesses    135810731                       # Number of integer instruction queue wakeup accesses
system.switch_cpus0.iq.fp_inst_queue_reads            0                       # Number of floating instruction queue reads
system.switch_cpus0.iq.fp_inst_queue_writes            0                       # Number of floating instruction queue writes
system.switch_cpus0.iq.fp_inst_queue_wakeup_accesses            0                       # Number of floating instruction queue wakeup accesses
system.switch_cpus0.iq.int_alu_accesses     140063125                       # Number of integer alu accesses
system.switch_cpus0.iq.fp_alu_accesses              0                       # Number of floating point alu accesses
system.switch_cpus0.iew.lsq.thread0.forwLoads       348129                       # Number of loads that had data forwarded from stores
system.switch_cpus0.iew.lsq.thread0.invAddrLoads            0                       # Number of loads ignored due to an invalid address
system.switch_cpus0.iew.lsq.thread0.squashedLoads      3311165                       # Number of loads squashed
system.switch_cpus0.iew.lsq.thread0.ignoredResponses         1043                       # Number of memory responses ignored because the instruction is squashed
system.switch_cpus0.iew.lsq.thread0.memOrderViolation          474                       # Number of memory ordering violations
system.switch_cpus0.iew.lsq.thread0.squashedStores       190103                       # Number of stores squashed
system.switch_cpus0.iew.lsq.thread0.invAddrSwpfs            0                       # Number of software prefetches ignored due to an invalid address
system.switch_cpus0.iew.lsq.thread0.blockedLoads            0                       # Number of blocked loads due to partial load-store forwarding
system.switch_cpus0.iew.lsq.thread0.rescheduledLoads            0                       # Number of loads that were rescheduled
system.switch_cpus0.iew.lsq.thread0.cacheBlocked            0                       # Number of times an access to memory failed due to the cache being blocked
system.switch_cpus0.iew.iewIdleCycles               0                       # Number of cycles IEW is idle
system.switch_cpus0.iew.iewSquashCycles       4075712                       # Number of cycles IEW is squashing
system.switch_cpus0.iew.iewBlockCycles        1081687                       # Number of cycles IEW is blocking
system.switch_cpus0.iew.iewUnblockCycles        97392                       # Number of cycles IEW is unblocking
system.switch_cpus0.iew.iewDispatchedInsts    148450820                       # Number of instructions dispatched to IQ
system.switch_cpus0.iew.iewDispSquashedInsts         9987                       # Number of squashed instructions skipped by dispatch
system.switch_cpus0.iew.iewDispLoadInsts     14545102                       # Number of dispatched load instructions
system.switch_cpus0.iew.iewDispStoreInsts      7215829                       # Number of dispatched store instructions
system.switch_cpus0.iew.iewDispNonSpecInsts        20760                       # Number of dispatched non-speculative instructions
system.switch_cpus0.iew.iewIQFullEvents         82351                       # Number of times the IQ has become full, causing a stall
system.switch_cpus0.iew.iewLSQFullEvents            0                       # Number of times the LSQ has become full, causing a stall
system.switch_cpus0.iew.memOrderViolationEvents          474                       # Number of memory order violations
system.switch_cpus0.iew.predictedTakenIncorrect      1099219                       # Number of branches that were predicted taken incorrectly
system.switch_cpus0.iew.predictedNotTakenIncorrect      1140842                       # Number of branches that were predicted not taken incorrectly
system.switch_cpus0.iew.branchMispredicts      2240061                       # Number of branch mispredicts detected at execute
system.switch_cpus0.iew.iewExecutedInsts    136843451                       # Number of executed instructions
system.switch_cpus0.iew.iewExecLoadInsts     12572894                       # Number of load instructions executed
system.switch_cpus0.iew.iewExecSquashedInsts      2541750                       # Number of squashed instructions skipped in execute
system.switch_cpus0.iew.exec_swp                    0                       # number of swp insts executed
system.switch_cpus0.iew.exec_nop                    0                       # number of nop insts executed
system.switch_cpus0.iew.exec_refs            19729935                       # number of memory reference insts executed
system.switch_cpus0.iew.exec_branches        19402856                       # Number of branches executed
system.switch_cpus0.iew.exec_stores           7157041                       # Number of stores executed
system.switch_cpus0.iew.exec_rate            0.563485                       # Inst execution rate
system.switch_cpus0.iew.wb_sent             135811360                       # cumulative count of insts sent to commit
system.switch_cpus0.iew.wb_count            135810731                       # cumulative count of insts written-back
system.switch_cpus0.iew.wb_producers         80436495                       # num instructions producing a value
system.switch_cpus0.iew.wb_consumers        222027976                       # num instructions consuming a value
system.switch_cpus0.iew.wb_penalized                0                       # number of instrctions required to write to 'other' IQ
system.switch_cpus0.iew.wb_rate              0.559233                       # insts written-back per cycle
system.switch_cpus0.iew.wb_fanout            0.362281                       # average fanout of values written-back
system.switch_cpus0.iew.wb_penalized_rate            0                       # fraction of instructions written-back that wrote to 'other' IQ
system.switch_cpus0.commit.commitCommittedInsts    100000004                       # The number of committed instructions
system.switch_cpus0.commit.commitCommittedOps    122809383                       # The number of committed instructions
system.switch_cpus0.commit.commitSquashedInsts     25642935                       # The number of squashed insts skipped by commit
system.switch_cpus0.commit.commitNonSpecStalls        33068                       # The number of times commit has been forced to stall to communicate backwards
system.switch_cpus0.commit.branchMispredicts      2019178                       # The number of times a branch was mispredicted
system.switch_cpus0.commit.committed_per_cycle::samples    216952464                       # Number of insts commited each cycle
system.switch_cpus0.commit.committed_per_cycle::mean     0.566066                       # Number of insts commited each cycle
system.switch_cpus0.commit.committed_per_cycle::stdev     1.370562                       # Number of insts commited each cycle
system.switch_cpus0.commit.committed_per_cycle::underflows            0      0.00%      0.00% # Number of insts commited each cycle
system.switch_cpus0.commit.committed_per_cycle::0    165373070     76.23%     76.23% # Number of insts commited each cycle
system.switch_cpus0.commit.committed_per_cycle::1     24277721     11.19%     87.42% # Number of insts commited each cycle
system.switch_cpus0.commit.committed_per_cycle::2     10604995      4.89%     92.30% # Number of insts commited each cycle
system.switch_cpus0.commit.committed_per_cycle::3      6015788      2.77%     95.08% # Number of insts commited each cycle
system.switch_cpus0.commit.committed_per_cycle::4      4360048      2.01%     97.09% # Number of insts commited each cycle
system.switch_cpus0.commit.committed_per_cycle::5      1709132      0.79%     97.87% # Number of insts commited each cycle
system.switch_cpus0.commit.committed_per_cycle::6      1325386      0.61%     98.49% # Number of insts commited each cycle
system.switch_cpus0.commit.committed_per_cycle::7       954452      0.44%     98.93% # Number of insts commited each cycle
system.switch_cpus0.commit.committed_per_cycle::8      2331872      1.07%    100.00% # Number of insts commited each cycle
system.switch_cpus0.commit.committed_per_cycle::overflows            0      0.00%    100.00% # Number of insts commited each cycle
system.switch_cpus0.commit.committed_per_cycle::min_value            0                       # Number of insts commited each cycle
system.switch_cpus0.commit.committed_per_cycle::max_value            8                       # Number of insts commited each cycle
system.switch_cpus0.commit.committed_per_cycle::total    216952464                       # Number of insts commited each cycle
system.switch_cpus0.commit.committedInsts    100000004                       # Number of instructions committed
system.switch_cpus0.commit.committedOps     122809383                       # Number of ops (including micro ops) committed
system.switch_cpus0.commit.swp_count                0                       # Number of s/w prefetches committed
system.switch_cpus0.commit.refs              18259663                       # Number of memory references committed
system.switch_cpus0.commit.loads             11233937                       # Number of loads committed
system.switch_cpus0.commit.membars              16534                       # Number of memory barriers committed
system.switch_cpus0.commit.branches          17645452                       # Number of branches committed
system.switch_cpus0.commit.fp_insts                 0                       # Number of committed floating point instructions.
system.switch_cpus0.commit.int_insts        110655559                       # Number of committed integer instructions.
system.switch_cpus0.commit.function_calls      2500186                       # Number of function calls committed.
system.switch_cpus0.commit.bw_lim_events      2331872                       # number cycles where commit BW limit reached
system.switch_cpus0.commit.bw_limited               0                       # number of insts not committed due to BW limits
system.switch_cpus0.rob.rob_reads           363072910                       # The number of ROB reads
system.switch_cpus0.rob.rob_writes          300980431                       # The number of ROB writes
system.switch_cpus0.timesIdled                3015278                       # Number of times that the entire CPU went into an idle state and unscheduled itself
system.switch_cpus0.idleCycles               21823657                       # Total number of cycles that the CPU has spent unscheduled due to idling
system.switch_cpus0.committedInsts          100000004                       # Number of Instructions Simulated
system.switch_cpus0.committedOps            122809383                       # Number of Ops (including micro ops) Simulated
system.switch_cpus0.committedInsts_total    100000004                       # Number of Instructions Simulated
system.switch_cpus0.cpi                      2.428518                       # CPI: Cycles Per Instruction
system.switch_cpus0.cpi_total                2.428518                       # CPI: Total CPI of All Threads
system.switch_cpus0.ipc                      0.411774                       # IPC: Instructions Per Cycle
system.switch_cpus0.ipc_total                0.411774                       # IPC: Total IPC of All Threads
system.switch_cpus0.int_regfile_reads       616377080                       # number of integer regfile reads
system.switch_cpus0.int_regfile_writes      189148080                       # number of integer regfile writes
system.switch_cpus0.misc_regfile_reads      138165681                       # number of misc regfile reads
system.switch_cpus0.misc_regfile_writes         33068                       # number of misc regfile writes
system.switch_cpus1.dtb.inst_hits                   0                       # ITB inst hits
system.switch_cpus1.dtb.inst_misses                 0                       # ITB inst misses
system.switch_cpus1.dtb.read_hits                   0                       # DTB read hits
system.switch_cpus1.dtb.read_misses                 0                       # DTB read misses
system.switch_cpus1.dtb.write_hits                  0                       # DTB write hits
system.switch_cpus1.dtb.write_misses                0                       # DTB write misses
system.switch_cpus1.dtb.flush_tlb                   0                       # Number of times complete TLB was flushed
system.switch_cpus1.dtb.flush_tlb_mva               0                       # Number of times TLB was flushed by MVA
system.switch_cpus1.dtb.flush_tlb_mva_asid            0                       # Number of times TLB was flushed by MVA & ASID
system.switch_cpus1.dtb.flush_tlb_asid              0                       # Number of times TLB was flushed by ASID
system.switch_cpus1.dtb.flush_entries               0                       # Number of entries that have been flushed from TLB
system.switch_cpus1.dtb.align_faults                0                       # Number of TLB faults due to alignment restrictions
system.switch_cpus1.dtb.prefetch_faults             0                       # Number of TLB faults due to prefetch
system.switch_cpus1.dtb.domain_faults               0                       # Number of TLB faults due to domain restrictions
system.switch_cpus1.dtb.perms_faults                0                       # Number of TLB faults due to permissions restrictions
system.switch_cpus1.dtb.read_accesses               0                       # DTB read accesses
system.switch_cpus1.dtb.write_accesses              0                       # DTB write accesses
system.switch_cpus1.dtb.inst_accesses               0                       # ITB inst accesses
system.switch_cpus1.dtb.hits                        0                       # DTB hits
system.switch_cpus1.dtb.misses                      0                       # DTB misses
system.switch_cpus1.dtb.accesses                    0                       # DTB accesses
system.switch_cpus1.itb.inst_hits                   0                       # ITB inst hits
system.switch_cpus1.itb.inst_misses                 0                       # ITB inst misses
system.switch_cpus1.itb.read_hits                   0                       # DTB read hits
system.switch_cpus1.itb.read_misses                 0                       # DTB read misses
system.switch_cpus1.itb.write_hits                  0                       # DTB write hits
system.switch_cpus1.itb.write_misses                0                       # DTB write misses
system.switch_cpus1.itb.flush_tlb                   0                       # Number of times complete TLB was flushed
system.switch_cpus1.itb.flush_tlb_mva               0                       # Number of times TLB was flushed by MVA
system.switch_cpus1.itb.flush_tlb_mva_asid            0                       # Number of times TLB was flushed by MVA & ASID
system.switch_cpus1.itb.flush_tlb_asid              0                       # Number of times TLB was flushed by ASID
system.switch_cpus1.itb.flush_entries               0                       # Number of entries that have been flushed from TLB
system.switch_cpus1.itb.align_faults                0                       # Number of TLB faults due to alignment restrictions
system.switch_cpus1.itb.prefetch_faults             0                       # Number of TLB faults due to prefetch
system.switch_cpus1.itb.domain_faults               0                       # Number of TLB faults due to domain restrictions
system.switch_cpus1.itb.perms_faults                0                       # Number of TLB faults due to permissions restrictions
system.switch_cpus1.itb.read_accesses               0                       # DTB read accesses
system.switch_cpus1.itb.write_accesses              0                       # DTB write accesses
system.switch_cpus1.itb.inst_accesses               0                       # ITB inst accesses
system.switch_cpus1.itb.hits                        0                       # DTB hits
system.switch_cpus1.itb.misses                      0                       # DTB misses
system.switch_cpus1.itb.accesses                    0                       # DTB accesses
system.cpu1.workload.num_syscalls                   0                       # Number of system calls
system.switch_cpus1.numCycles               242851833                       # number of cpu cycles simulated
system.switch_cpus1.numWorkItemsStarted             0                       # number of work items this cpu started
system.switch_cpus1.numWorkItemsCompleted            0                       # number of work items this cpu completed
system.switch_cpus1.BPredUnit.lookups        20783537                       # Number of BP lookups
system.switch_cpus1.BPredUnit.condPredicted     16928839                       # Number of conditional branches predicted
system.switch_cpus1.BPredUnit.condIncorrect      1857403                       # Number of conditional branches incorrect
system.switch_cpus1.BPredUnit.BTBLookups      8369744                       # Number of BTB lookups
system.switch_cpus1.BPredUnit.BTBHits         7891330                       # Number of BTB hits
system.switch_cpus1.BPredUnit.BTBCorrect            0                       # Number of correct BTB predictions (this stat may not work properly.
system.switch_cpus1.BPredUnit.usedRAS         2170236                       # Number of times the RAS was used to get a target.
system.switch_cpus1.BPredUnit.RASInCorrect        84213                       # Number of incorrect RAS predictions.
system.switch_cpus1.fetch.icacheStallCycles    187813906                       # Number of cycles fetch is stalled on an Icache miss
system.switch_cpus1.fetch.Insts             116956741                       # Number of instructions fetch has processed
system.switch_cpus1.fetch.Branches           20783537                       # Number of branches that fetch encountered
system.switch_cpus1.fetch.predictedBranches     10061566                       # Number of branches that fetch has predicted taken
system.switch_cpus1.fetch.Cycles             24722655                       # Number of cycles fetch has run and was not squashing or blocked
system.switch_cpus1.fetch.SquashCycles        5540982                       # Number of cycles fetch has spent squashing
system.switch_cpus1.fetch.BlockedCycles       8517143                       # Number of cycles fetch has spent blocked
system.switch_cpus1.fetch.CacheLines         11487222                       # Number of cache lines fetched
system.switch_cpus1.fetch.IcacheSquashes      1855862                       # Number of outstanding Icache misses that were squashed
system.switch_cpus1.fetch.rateDist::samples    224708489                       # Number of instructions fetched each cycle (Total)
system.switch_cpus1.fetch.rateDist::mean     0.629418                       # Number of instructions fetched each cycle (Total)
system.switch_cpus1.fetch.rateDist::stdev     1.998041                       # Number of instructions fetched each cycle (Total)
system.switch_cpus1.fetch.rateDist::underflows            0      0.00%      0.00% # Number of instructions fetched each cycle (Total)
system.switch_cpus1.fetch.rateDist::0       199985834     89.00%     89.00% # Number of instructions fetched each cycle (Total)
system.switch_cpus1.fetch.rateDist::1         2647194      1.18%     90.18% # Number of instructions fetched each cycle (Total)
system.switch_cpus1.fetch.rateDist::2         2080104      0.93%     91.10% # Number of instructions fetched each cycle (Total)
system.switch_cpus1.fetch.rateDist::3         2240673      1.00%     92.10% # Number of instructions fetched each cycle (Total)
system.switch_cpus1.fetch.rateDist::4         1896343      0.84%     92.94% # Number of instructions fetched each cycle (Total)
system.switch_cpus1.fetch.rateDist::5         1068309      0.48%     93.42% # Number of instructions fetched each cycle (Total)
system.switch_cpus1.fetch.rateDist::6          732965      0.33%     93.74% # Number of instructions fetched each cycle (Total)
system.switch_cpus1.fetch.rateDist::7         1875037      0.83%     94.58% # Number of instructions fetched each cycle (Total)
system.switch_cpus1.fetch.rateDist::8        12182030      5.42%    100.00% # Number of instructions fetched each cycle (Total)
system.switch_cpus1.fetch.rateDist::overflows            0      0.00%    100.00% # Number of instructions fetched each cycle (Total)
system.switch_cpus1.fetch.rateDist::min_value            0                       # Number of instructions fetched each cycle (Total)
system.switch_cpus1.fetch.rateDist::max_value            8                       # Number of instructions fetched each cycle (Total)
system.switch_cpus1.fetch.rateDist::total    224708489                       # Number of instructions fetched each cycle (Total)
system.switch_cpus1.fetch.branchRate         0.085581                       # Number of branch fetches per cycle
system.switch_cpus1.fetch.rate               0.481597                       # Number of inst fetches per cycle
system.switch_cpus1.decode.IdleCycles       185586929                       # Number of cycles decode is idle
system.switch_cpus1.decode.BlockedCycles     10781834                       # Number of cycles decode is blocked
system.switch_cpus1.decode.RunCycles         24582150                       # Number of cycles decode is running
system.switch_cpus1.decode.UnblockCycles       109124                       # Number of cycles decode is unblocking
system.switch_cpus1.decode.SquashCycles       3648444                       # Number of cycles decode is squashing
system.switch_cpus1.decode.BranchResolved      3540195                       # Number of times decode resolved a branch
system.switch_cpus1.decode.BranchMispred         6341                       # Number of times decode detected a branch misprediction
system.switch_cpus1.decode.DecodedInsts     141164798                       # Number of instructions handled by decode
system.switch_cpus1.decode.SquashedInsts        50182                       # Number of squashed instructions handled by decode
system.switch_cpus1.rename.SquashCycles       3648444                       # Number of cycles rename is squashing
system.switch_cpus1.rename.IdleCycles       185836898                       # Number of cycles rename is idle
system.switch_cpus1.rename.BlockCycles        7421938                       # Number of cycles rename is blocking
system.switch_cpus1.rename.serializeStallCycles      2253469                       # count of cycles rename stalled for serializing inst
system.switch_cpus1.rename.RunCycles         24444623                       # Number of cycles rename is running
system.switch_cpus1.rename.UnblockCycles      1103110                       # Number of cycles rename is unblocking
system.switch_cpus1.rename.RenamedInsts     140957122                       # Number of instructions processed by rename
system.switch_cpus1.rename.ROBFullEvents         1557                       # Number of times rename has blocked due to ROB full
system.switch_cpus1.rename.IQFullEvents        417181                       # Number of times rename has blocked due to IQ full
system.switch_cpus1.rename.LSQFullEvents       543427                       # Number of times rename has blocked due to LSQ full
system.switch_cpus1.rename.FullRegisterEvents        21642                       # Number of times there has been no free registers
system.switch_cpus1.rename.RenamedOperands    197282595                       # Number of destination operands rename has renamed
system.switch_cpus1.rename.RenameLookups    656937635                       # Number of register rename lookups that rename has made
system.switch_cpus1.rename.int_rename_lookups    656937635                       # Number of integer rename lookups
system.switch_cpus1.rename.CommittedMaps    163684242                       # Number of HB maps that are committed
system.switch_cpus1.rename.UndoneMaps        33598347                       # Number of HB maps that are undone due to squashing
system.switch_cpus1.rename.serializingInsts        32160                       # count of serializing insts renamed
system.switch_cpus1.rename.tempSerializingInsts        16531                       # count of temporary serializing insts renamed
system.switch_cpus1.rename.skidInsts          3492377                       # count of insts added to the skid buffer
system.switch_cpus1.memDep0.insertedLoads     13548034                       # Number of loads inserted to the mem dependence unit.
system.switch_cpus1.memDep0.insertedStores      7611613                       # Number of stores inserted to the mem dependence unit.
system.switch_cpus1.memDep0.conflictingLoads       285085                       # Number of conflicting loads.
system.switch_cpus1.memDep0.conflictingStores      1646440                       # Number of conflicting stores.
system.switch_cpus1.iq.iqInstsAdded         140459181                       # Number of instructions added to the IQ (excludes non-spec)
system.switch_cpus1.iq.iqNonSpecInstsAdded        32160                       # Number of non-speculative instructions added to the IQ
system.switch_cpus1.iq.iqInstsIssued        133369199                       # Number of instructions issued
system.switch_cpus1.iq.iqSquashedInstsIssued        78563                       # Number of squashed instructions issued
system.switch_cpus1.iq.iqSquashedInstsExamined     19512110                       # Number of squashed instructions iterated over during squash; mainly for profiling
system.switch_cpus1.iq.iqSquashedOperandsExamined     40088347                       # Number of squashed operands that are examined and possibly removed from graph
system.switch_cpus1.iq.iqSquashedNonSpecRemoved          902                       # Number of squashed non-spec instructions that were removed
system.switch_cpus1.iq.issued_per_cycle::samples    224708489                       # Number of insts issued each cycle
system.switch_cpus1.iq.issued_per_cycle::mean     0.593521                       # Number of insts issued each cycle
system.switch_cpus1.iq.issued_per_cycle::stdev     1.298829                       # Number of insts issued each cycle
system.switch_cpus1.iq.issued_per_cycle::underflows            0      0.00%      0.00% # Number of insts issued each cycle
system.switch_cpus1.iq.issued_per_cycle::0    168414094     74.95%     74.95% # Number of insts issued each cycle
system.switch_cpus1.iq.issued_per_cycle::1     23746730     10.57%     85.52% # Number of insts issued each cycle
system.switch_cpus1.iq.issued_per_cycle::2     11998164      5.34%     90.86% # Number of insts issued each cycle
system.switch_cpus1.iq.issued_per_cycle::3      7749061      3.45%     94.30% # Number of insts issued each cycle
system.switch_cpus1.iq.issued_per_cycle::4      6386344      2.84%     97.15% # Number of insts issued each cycle
system.switch_cpus1.iq.issued_per_cycle::5      2510527      1.12%     98.26% # Number of insts issued each cycle
system.switch_cpus1.iq.issued_per_cycle::6      3095406      1.38%     99.64% # Number of insts issued each cycle
system.switch_cpus1.iq.issued_per_cycle::7       756793      0.34%     99.98% # Number of insts issued each cycle
system.switch_cpus1.iq.issued_per_cycle::8        51370      0.02%    100.00% # Number of insts issued each cycle
system.switch_cpus1.iq.issued_per_cycle::overflows            0      0.00%    100.00% # Number of insts issued each cycle
system.switch_cpus1.iq.issued_per_cycle::min_value            0                       # Number of insts issued each cycle
system.switch_cpus1.iq.issued_per_cycle::max_value            8                       # Number of insts issued each cycle
system.switch_cpus1.iq.issued_per_cycle::total    224708489                       # Number of insts issued each cycle
system.switch_cpus1.iq.fu_full::No_OpClass            0      0.00%      0.00% # attempts to use FU when none available
system.switch_cpus1.iq.fu_full::IntAlu         935585     75.48%     75.48% # attempts to use FU when none available
system.switch_cpus1.iq.fu_full::IntMult             0      0.00%     75.48% # attempts to use FU when none available
system.switch_cpus1.iq.fu_full::IntDiv              0      0.00%     75.48% # attempts to use FU when none available
system.switch_cpus1.iq.fu_full::FloatAdd            0      0.00%     75.48% # attempts to use FU when none available
system.switch_cpus1.iq.fu_full::FloatCmp            0      0.00%     75.48% # attempts to use FU when none available
system.switch_cpus1.iq.fu_full::FloatCvt            0      0.00%     75.48% # attempts to use FU when none available
system.switch_cpus1.iq.fu_full::FloatMult            0      0.00%     75.48% # attempts to use FU when none available
system.switch_cpus1.iq.fu_full::FloatDiv            0      0.00%     75.48% # attempts to use FU when none available
system.switch_cpus1.iq.fu_full::FloatSqrt            0      0.00%     75.48% # attempts to use FU when none available
system.switch_cpus1.iq.fu_full::SimdAdd             0      0.00%     75.48% # attempts to use FU when none available
system.switch_cpus1.iq.fu_full::SimdAddAcc            0      0.00%     75.48% # attempts to use FU when none available
system.switch_cpus1.iq.fu_full::SimdAlu             0      0.00%     75.48% # attempts to use FU when none available
system.switch_cpus1.iq.fu_full::SimdCmp             0      0.00%     75.48% # attempts to use FU when none available
system.switch_cpus1.iq.fu_full::SimdCvt             0      0.00%     75.48% # attempts to use FU when none available
system.switch_cpus1.iq.fu_full::SimdMisc            0      0.00%     75.48% # attempts to use FU when none available
system.switch_cpus1.iq.fu_full::SimdMult            0      0.00%     75.48% # attempts to use FU when none available
system.switch_cpus1.iq.fu_full::SimdMultAcc            0      0.00%     75.48% # attempts to use FU when none available
system.switch_cpus1.iq.fu_full::SimdShift            0      0.00%     75.48% # attempts to use FU when none available
system.switch_cpus1.iq.fu_full::SimdShiftAcc            0      0.00%     75.48% # attempts to use FU when none available
system.switch_cpus1.iq.fu_full::SimdSqrt            0      0.00%     75.48% # attempts to use FU when none available
system.switch_cpus1.iq.fu_full::SimdFloatAdd            0      0.00%     75.48% # attempts to use FU when none available
system.switch_cpus1.iq.fu_full::SimdFloatAlu            0      0.00%     75.48% # attempts to use FU when none available
system.switch_cpus1.iq.fu_full::SimdFloatCmp            0      0.00%     75.48% # attempts to use FU when none available
system.switch_cpus1.iq.fu_full::SimdFloatCvt            0      0.00%     75.48% # attempts to use FU when none available
system.switch_cpus1.iq.fu_full::SimdFloatDiv            0      0.00%     75.48% # attempts to use FU when none available
system.switch_cpus1.iq.fu_full::SimdFloatMisc            0      0.00%     75.48% # attempts to use FU when none available
system.switch_cpus1.iq.fu_full::SimdFloatMult            0      0.00%     75.48% # attempts to use FU when none available
system.switch_cpus1.iq.fu_full::SimdFloatMultAcc            0      0.00%     75.48% # attempts to use FU when none available
system.switch_cpus1.iq.fu_full::SimdFloatSqrt            0      0.00%     75.48% # attempts to use FU when none available
system.switch_cpus1.iq.fu_full::MemRead        140133     11.30%     86.78% # attempts to use FU when none available
system.switch_cpus1.iq.fu_full::MemWrite       163859     13.22%    100.00% # attempts to use FU when none available
system.switch_cpus1.iq.fu_full::IprAccess            0      0.00%    100.00% # attempts to use FU when none available
system.switch_cpus1.iq.fu_full::InstPrefetch            0      0.00%    100.00% # attempts to use FU when none available
system.switch_cpus1.iq.FU_type_0::No_OpClass            0      0.00%      0.00% # Type of FU issued
system.switch_cpus1.iq.FU_type_0::IntAlu    110597026     82.93%     82.93% # Type of FU issued
system.switch_cpus1.iq.FU_type_0::IntMult      1954987      1.47%     84.39% # Type of FU issued
system.switch_cpus1.iq.FU_type_0::IntDiv            0      0.00%     84.39% # Type of FU issued
system.switch_cpus1.iq.FU_type_0::FloatAdd            0      0.00%     84.39% # Type of FU issued
system.switch_cpus1.iq.FU_type_0::FloatCmp            0      0.00%     84.39% # Type of FU issued
system.switch_cpus1.iq.FU_type_0::FloatCvt            0      0.00%     84.39% # Type of FU issued
system.switch_cpus1.iq.FU_type_0::FloatMult            0      0.00%     84.39% # Type of FU issued
system.switch_cpus1.iq.FU_type_0::FloatDiv            0      0.00%     84.39% # Type of FU issued
system.switch_cpus1.iq.FU_type_0::FloatSqrt            0      0.00%     84.39% # Type of FU issued
system.switch_cpus1.iq.FU_type_0::SimdAdd            0      0.00%     84.39% # Type of FU issued
system.switch_cpus1.iq.FU_type_0::SimdAddAcc            0      0.00%     84.39% # Type of FU issued
system.switch_cpus1.iq.FU_type_0::SimdAlu            0      0.00%     84.39% # Type of FU issued
system.switch_cpus1.iq.FU_type_0::SimdCmp            0      0.00%     84.39% # Type of FU issued
system.switch_cpus1.iq.FU_type_0::SimdCvt            0      0.00%     84.39% # Type of FU issued
system.switch_cpus1.iq.FU_type_0::SimdMisc            0      0.00%     84.39% # Type of FU issued
system.switch_cpus1.iq.FU_type_0::SimdMult            0      0.00%     84.39% # Type of FU issued
system.switch_cpus1.iq.FU_type_0::SimdMultAcc            0      0.00%     84.39% # Type of FU issued
system.switch_cpus1.iq.FU_type_0::SimdShift            0      0.00%     84.39% # Type of FU issued
system.switch_cpus1.iq.FU_type_0::SimdShiftAcc            0      0.00%     84.39% # Type of FU issued
system.switch_cpus1.iq.FU_type_0::SimdSqrt            0      0.00%     84.39% # Type of FU issued
system.switch_cpus1.iq.FU_type_0::SimdFloatAdd            0      0.00%     84.39% # Type of FU issued
system.switch_cpus1.iq.FU_type_0::SimdFloatAlu            0      0.00%     84.39% # Type of FU issued
system.switch_cpus1.iq.FU_type_0::SimdFloatCmp            0      0.00%     84.39% # Type of FU issued
system.switch_cpus1.iq.FU_type_0::SimdFloatCvt            0      0.00%     84.39% # Type of FU issued
system.switch_cpus1.iq.FU_type_0::SimdFloatDiv            0      0.00%     84.39% # Type of FU issued
system.switch_cpus1.iq.FU_type_0::SimdFloatMisc        15629      0.01%     84.40% # Type of FU issued
system.switch_cpus1.iq.FU_type_0::SimdFloatMult            0      0.00%     84.40% # Type of FU issued
system.switch_cpus1.iq.FU_type_0::SimdFloatMultAcc            0      0.00%     84.40% # Type of FU issued
system.switch_cpus1.iq.FU_type_0::SimdFloatSqrt            0      0.00%     84.40% # Type of FU issued
system.switch_cpus1.iq.FU_type_0::MemRead     13230989      9.92%     94.32% # Type of FU issued
system.switch_cpus1.iq.FU_type_0::MemWrite      7570568      5.68%    100.00% # Type of FU issued
system.switch_cpus1.iq.FU_type_0::IprAccess            0      0.00%    100.00% # Type of FU issued
system.switch_cpus1.iq.FU_type_0::InstPrefetch            0      0.00%    100.00% # Type of FU issued
system.switch_cpus1.iq.FU_type_0::total     133369199                       # Type of FU issued
system.switch_cpus1.iq.rate                  0.549179                       # Inst issue rate
system.switch_cpus1.iq.fu_busy_cnt            1239577                       # FU busy when requested
system.switch_cpus1.iq.fu_busy_rate          0.009294                       # FU busy rate (busy events/executed inst)
system.switch_cpus1.iq.int_inst_queue_reads    492765027                       # Number of integer instruction queue reads
system.switch_cpus1.iq.int_inst_queue_writes    160004107                       # Number of integer instruction queue writes
system.switch_cpus1.iq.int_inst_queue_wakeup_accesses    129668388                       # Number of integer instruction queue wakeup accesses
system.switch_cpus1.iq.fp_inst_queue_reads            0                       # Number of floating instruction queue reads
system.switch_cpus1.iq.fp_inst_queue_writes            0                       # Number of floating instruction queue writes
system.switch_cpus1.iq.fp_inst_queue_wakeup_accesses            0                       # Number of floating instruction queue wakeup accesses
system.switch_cpus1.iq.int_alu_accesses     134608776                       # Number of integer alu accesses
system.switch_cpus1.iq.fp_alu_accesses              0                       # Number of floating point alu accesses
system.switch_cpus1.iew.lsq.thread0.forwLoads       147376                       # Number of loads that had data forwarded from stores
system.switch_cpus1.iew.lsq.thread0.invAddrLoads            0                       # Number of loads ignored due to an invalid address
system.switch_cpus1.iew.lsq.thread0.squashedLoads      1754766                       # Number of loads squashed
system.switch_cpus1.iew.lsq.thread0.ignoredResponses           52                       # Number of memory responses ignored because the instruction is squashed
system.switch_cpus1.iew.lsq.thread0.memOrderViolation          661                       # Number of memory ordering violations
system.switch_cpus1.iew.lsq.thread0.squashedStores       130307                       # Number of stores squashed
system.switch_cpus1.iew.lsq.thread0.invAddrSwpfs            0                       # Number of software prefetches ignored due to an invalid address
system.switch_cpus1.iew.lsq.thread0.blockedLoads            0                       # Number of blocked loads due to partial load-store forwarding
system.switch_cpus1.iew.lsq.thread0.rescheduledLoads          539                       # Number of loads that were rescheduled
system.switch_cpus1.iew.lsq.thread0.cacheBlocked            0                       # Number of times an access to memory failed due to the cache being blocked
system.switch_cpus1.iew.iewIdleCycles               0                       # Number of cycles IEW is idle
system.switch_cpus1.iew.iewSquashCycles       3648444                       # Number of cycles IEW is squashing
system.switch_cpus1.iew.iewBlockCycles        6699711                       # Number of cycles IEW is blocking
system.switch_cpus1.iew.iewUnblockCycles       287159                       # Number of cycles IEW is unblocking
system.switch_cpus1.iew.iewDispatchedInsts    140491341                       # Number of instructions dispatched to IQ
system.switch_cpus1.iew.iewDispSquashedInsts         3454                       # Number of squashed instructions skipped by dispatch
system.switch_cpus1.iew.iewDispLoadInsts     13548034                       # Number of dispatched load instructions
system.switch_cpus1.iew.iewDispStoreInsts      7611613                       # Number of dispatched store instructions
system.switch_cpus1.iew.iewDispNonSpecInsts        16531                       # Number of dispatched non-speculative instructions
system.switch_cpus1.iew.iewIQFullEvents        224188                       # Number of times the IQ has become full, causing a stall
system.switch_cpus1.iew.iewLSQFullEvents        11991                       # Number of times the LSQ has become full, causing a stall
system.switch_cpus1.iew.memOrderViolationEvents          661                       # Number of memory order violations
system.switch_cpus1.iew.predictedTakenIncorrect      1110649                       # Number of branches that were predicted taken incorrectly
system.switch_cpus1.iew.predictedNotTakenIncorrect      1031998                       # Number of branches that were predicted not taken incorrectly
system.switch_cpus1.iew.branchMispredicts      2142647                       # Number of branch mispredicts detected at execute
system.switch_cpus1.iew.iewExecutedInsts    130859803                       # Number of executed instructions
system.switch_cpus1.iew.iewExecLoadInsts     13104701                       # Number of load instructions executed
system.switch_cpus1.iew.iewExecSquashedInsts      2509396                       # Number of squashed instructions skipped in execute
system.switch_cpus1.iew.exec_swp                    0                       # number of swp insts executed
system.switch_cpus1.iew.exec_nop                    0                       # number of nop insts executed
system.switch_cpus1.iew.exec_refs            20674705                       # number of memory reference insts executed
system.switch_cpus1.iew.exec_branches        18678108                       # Number of branches executed
system.switch_cpus1.iew.exec_stores           7570004                       # Number of stores executed
system.switch_cpus1.iew.exec_rate            0.538846                       # Inst execution rate
system.switch_cpus1.iew.wb_sent             129670658                       # cumulative count of insts sent to commit
system.switch_cpus1.iew.wb_count            129668388                       # cumulative count of insts written-back
system.switch_cpus1.iew.wb_producers         77038940                       # num instructions producing a value
system.switch_cpus1.iew.wb_consumers        207501402                       # num instructions consuming a value
system.switch_cpus1.iew.wb_penalized                0                       # number of instrctions required to write to 'other' IQ
system.switch_cpus1.iew.wb_rate              0.533940                       # insts written-back per cycle
system.switch_cpus1.iew.wb_fanout            0.371269                       # average fanout of values written-back
system.switch_cpus1.iew.wb_penalized_rate            0                       # fraction of instructions written-back that wrote to 'other' IQ
system.switch_cpus1.commit.commitCommittedInsts     97151324                       # The number of committed instructions
system.switch_cpus1.commit.commitCommittedOps    118982630                       # The number of committed instructions
system.switch_cpus1.commit.commitSquashedInsts     21518403                       # The number of squashed insts skipped by commit
system.switch_cpus1.commit.commitNonSpecStalls        31258                       # The number of times commit has been forced to stall to communicate backwards
system.switch_cpus1.commit.branchMispredicts      1879324                       # The number of times a branch was mispredicted
system.switch_cpus1.commit.committed_per_cycle::samples    221060045                       # Number of insts commited each cycle
system.switch_cpus1.commit.committed_per_cycle::mean     0.538237                       # Number of insts commited each cycle
system.switch_cpus1.commit.committed_per_cycle::stdev     1.391286                       # Number of insts commited each cycle
system.switch_cpus1.commit.committed_per_cycle::underflows            0      0.00%      0.00% # Number of insts commited each cycle
system.switch_cpus1.commit.committed_per_cycle::0    172686006     78.12%     78.12% # Number of insts commited each cycle
system.switch_cpus1.commit.committed_per_cycle::1     22670020     10.26%     88.37% # Number of insts commited each cycle
system.switch_cpus1.commit.committed_per_cycle::2     10521753      4.76%     93.13% # Number of insts commited each cycle
system.switch_cpus1.commit.committed_per_cycle::3      4686390      2.12%     95.25% # Number of insts commited each cycle
system.switch_cpus1.commit.committed_per_cycle::4      3553647      1.61%     96.86% # Number of insts commited each cycle
system.switch_cpus1.commit.committed_per_cycle::5      1501757      0.68%     97.54% # Number of insts commited each cycle
system.switch_cpus1.commit.committed_per_cycle::6      1486313      0.67%     98.21% # Number of insts commited each cycle
system.switch_cpus1.commit.committed_per_cycle::7      1064589      0.48%     98.69% # Number of insts commited each cycle
system.switch_cpus1.commit.committed_per_cycle::8      2889570      1.31%    100.00% # Number of insts commited each cycle
system.switch_cpus1.commit.committed_per_cycle::overflows            0      0.00%    100.00% # Number of insts commited each cycle
system.switch_cpus1.commit.committed_per_cycle::min_value            0                       # Number of insts commited each cycle
system.switch_cpus1.commit.committed_per_cycle::max_value            8                       # Number of insts commited each cycle
system.switch_cpus1.commit.committed_per_cycle::total    221060045                       # Number of insts commited each cycle
system.switch_cpus1.commit.committedInsts     97151324                       # Number of instructions committed
system.switch_cpus1.commit.committedOps     118982630                       # Number of ops (including micro ops) committed
system.switch_cpus1.commit.swp_count                0                       # Number of s/w prefetches committed
[...]
system.cpu2.icache.ReadReq_avg_miss_latency::total 205587.800000                       # average ReadReq miss latency
system.cpu2.icache.demand_avg_miss_latency::switch_cpus2.inst 205587.800000                       # average overall miss latency
system.cpu2.icache.demand_avg_miss_latency::total 205587.800000                       # average overall miss latency
system.cpu2.icache.overall_avg_miss_latency::switch_cpus2.inst 205587.800000                       # average overall miss latency
system.cpu2.icache.overall_avg_miss_latency::total 205587.800000                       # average overall miss latency
system.cpu2.icache.blocked_cycles::no_mshrs            0                       # number of cycles access was blocked
system.cpu2.icache.blocked_cycles::no_targets            0                       # number of cycles access was blocked
system.cpu2.icache.blocked::no_mshrs                0                       # number of cycles access was blocked
system.cpu2.icache.blocked::no_targets              0                       # number of cycles access was blocked
system.cpu2.icache.avg_blocked_cycles::no_mshrs          nan                       # average number of cycles each access was blocked
system.cpu2.icache.avg_blocked_cycles::no_targets          nan                       # average number of cycles each access was blocked
system.cpu2.icache.fast_writes                      0                       # number of fast writes performed
system.cpu2.icache.cache_copies                     0                       # number of cache copies performed
system.cpu2.icache.ReadReq_mshr_hits::switch_cpus2.inst            7                       # number of ReadReq MSHR hits
system.cpu2.icache.ReadReq_mshr_hits::total            7                       # number of ReadReq MSHR hits
system.cpu2.icache.demand_mshr_hits::switch_cpus2.inst            7                       # number of demand (read+write) MSHR hits
system.cpu2.icache.demand_mshr_hits::total            7                       # number of demand (read+write) MSHR hits
system.cpu2.icache.overall_mshr_hits::switch_cpus2.inst            7                       # number of overall MSHR hits
system.cpu2.icache.overall_mshr_hits::total            7                       # number of overall MSHR hits
system.cpu2.icache.ReadReq_mshr_misses::switch_cpus2.inst           13                       # number of ReadReq MSHR misses
system.cpu2.icache.ReadReq_mshr_misses::total           13                       # number of ReadReq MSHR misses
system.cpu2.icache.demand_mshr_misses::switch_cpus2.inst           13                       # number of demand (read+write) MSHR misses
system.cpu2.icache.demand_mshr_misses::total           13                       # number of demand (read+write) MSHR misses
system.cpu2.icache.overall_mshr_misses::switch_cpus2.inst           13                       # number of overall MSHR misses
system.cpu2.icache.overall_mshr_misses::total           13                       # number of overall MSHR misses
system.cpu2.icache.ReadReq_mshr_miss_latency::switch_cpus2.inst      2795831                       # number of ReadReq MSHR miss cycles
system.cpu2.icache.ReadReq_mshr_miss_latency::total      2795831                       # number of ReadReq MSHR miss cycles
system.cpu2.icache.demand_mshr_miss_latency::switch_cpus2.inst      2795831                       # number of demand (read+write) MSHR miss cycles
system.cpu2.icache.demand_mshr_miss_latency::total      2795831                       # number of demand (read+write) MSHR miss cycles
system.cpu2.icache.overall_mshr_miss_latency::switch_cpus2.inst      2795831                       # number of overall MSHR miss cycles
system.cpu2.icache.overall_mshr_miss_latency::total      2795831                       # number of overall MSHR miss cycles
system.cpu2.icache.ReadReq_mshr_miss_rate::switch_cpus2.inst     0.000001                       # mshr miss rate for ReadReq accesses
system.cpu2.icache.ReadReq_mshr_miss_rate::total     0.000001                       # mshr miss rate for ReadReq accesses
system.cpu2.icache.demand_mshr_miss_rate::switch_cpus2.inst     0.000001                       # mshr miss rate for demand accesses
system.cpu2.icache.demand_mshr_miss_rate::total     0.000001                       # mshr miss rate for demand accesses
system.cpu2.icache.overall_mshr_miss_rate::switch_cpus2.inst     0.000001                       # mshr miss rate for overall accesses
system.cpu2.icache.overall_mshr_miss_rate::total     0.000001                       # mshr miss rate for overall accesses
system.cpu2.icache.ReadReq_avg_mshr_miss_latency::switch_cpus2.inst 215063.923077                       # average ReadReq mshr miss latency
system.cpu2.icache.ReadReq_avg_mshr_miss_latency::total 215063.923077                       # average ReadReq mshr miss latency
system.cpu2.icache.demand_avg_mshr_miss_latency::switch_cpus2.inst 215063.923077                       # average overall mshr miss latency
system.cpu2.icache.demand_avg_mshr_miss_latency::total 215063.923077                       # average overall mshr miss latency
system.cpu2.icache.overall_avg_mshr_miss_latency::switch_cpus2.inst 215063.923077                       # average overall mshr miss latency
system.cpu2.icache.overall_avg_mshr_miss_latency::total 215063.923077                       # average overall mshr miss latency
system.cpu2.icache.no_allocate_misses               0                       # Number of misses that were no-allocate
system.cpu2.dcache.replacements                 50592                       # number of replacements
system.cpu2.dcache.tagsinuse                      256                       # Cycle average of tags in use
system.cpu2.dcache.total_refs               170975963                       # Total number of references to valid blocks.
system.cpu2.dcache.sampled_refs                 50848                       # Sample count of references to valid blocks.
system.cpu2.dcache.avg_refs               3362.491406                       # Average number of references to valid blocks.
system.cpu2.dcache.warmup_cycle                     0                       # Cycle when the warmup percentage was hit.
system.cpu2.dcache.occ_blocks::switch_cpus2.data   233.206821                       # Average occupied blocks per requestor
system.cpu2.dcache.occ_blocks::cpu2.data    22.793179                       # Average occupied blocks per requestor
system.cpu2.dcache.occ_percent::switch_cpus2.data     0.910964                       # Average percentage of cache occupancy
system.cpu2.dcache.occ_percent::cpu2.data     0.089036                       # Average percentage of cache occupancy
system.cpu2.dcache.occ_percent::total               1                       # Average percentage of cache occupancy
system.cpu2.dcache.ReadReq_hits::switch_cpus2.data      8259352                       # number of ReadReq hits
system.cpu2.dcache.ReadReq_hits::total        8259352                       # number of ReadReq hits
system.cpu2.dcache.WriteReq_hits::switch_cpus2.data      6920997                       # number of WriteReq hits
system.cpu2.dcache.WriteReq_hits::total       6920997                       # number of WriteReq hits
system.cpu2.dcache.LoadLockedReq_hits::switch_cpus2.data        16851                       # number of LoadLockedReq hits
system.cpu2.dcache.LoadLockedReq_hits::total        16851                       # number of LoadLockedReq hits
system.cpu2.dcache.StoreCondReq_hits::switch_cpus2.data        16058                       # number of StoreCondReq hits
system.cpu2.dcache.StoreCondReq_hits::total        16058                       # number of StoreCondReq hits
system.cpu2.dcache.demand_hits::switch_cpus2.data     15180349                       # number of demand (read+write) hits
system.cpu2.dcache.demand_hits::total        15180349                       # number of demand (read+write) hits
system.cpu2.dcache.overall_hits::switch_cpus2.data     15180349                       # number of overall hits
system.cpu2.dcache.overall_hits::total       15180349                       # number of overall hits
system.cpu2.dcache.ReadReq_misses::switch_cpus2.data       142793                       # number of ReadReq misses
system.cpu2.dcache.ReadReq_misses::total       142793                       # number of ReadReq misses
system.cpu2.dcache.WriteReq_misses::switch_cpus2.data         3004                       # number of WriteReq misses
system.cpu2.dcache.WriteReq_misses::total         3004                       # number of WriteReq misses
system.cpu2.dcache.demand_misses::switch_cpus2.data       145797                       # number of demand (read+write) misses
system.cpu2.dcache.demand_misses::total        145797                       # number of demand (read+write) misses
system.cpu2.dcache.overall_misses::switch_cpus2.data       145797                       # number of overall misses
system.cpu2.dcache.overall_misses::total       145797                       # number of overall misses
system.cpu2.dcache.ReadReq_miss_latency::switch_cpus2.data  15677388120                       # number of ReadReq miss cycles
system.cpu2.dcache.ReadReq_miss_latency::total  15677388120                       # number of ReadReq miss cycles
system.cpu2.dcache.WriteReq_miss_latency::switch_cpus2.data    587568482                       # number of WriteReq miss cycles
system.cpu2.dcache.WriteReq_miss_latency::total    587568482                       # number of WriteReq miss cycles
system.cpu2.dcache.demand_miss_latency::switch_cpus2.data  16264956602                       # number of demand (read+write) miss cycles
system.cpu2.dcache.demand_miss_latency::total  16264956602                       # number of demand (read+write) miss cycles
system.cpu2.dcache.overall_miss_latency::switch_cpus2.data  16264956602                       # number of overall miss cycles
system.cpu2.dcache.overall_miss_latency::total  16264956602                       # number of overall miss cycles
system.cpu2.dcache.ReadReq_accesses::switch_cpus2.data      8402145                       # number of ReadReq accesses(hits+misses)
system.cpu2.dcache.ReadReq_accesses::total      8402145                       # number of ReadReq accesses(hits+misses)
system.cpu2.dcache.WriteReq_accesses::switch_cpus2.data      6924001                       # number of WriteReq accesses(hits+misses)
system.cpu2.dcache.WriteReq_accesses::total      6924001                       # number of WriteReq accesses(hits+misses)
system.cpu2.dcache.LoadLockedReq_accesses::switch_cpus2.data        16851                       # number of LoadLockedReq accesses(hits+misses)
system.cpu2.dcache.LoadLockedReq_accesses::total        16851                       # number of LoadLockedReq accesses(hits+misses)
system.cpu2.dcache.StoreCondReq_accesses::switch_cpus2.data        16058                       # number of StoreCondReq accesses(hits+misses)
system.cpu2.dcache.StoreCondReq_accesses::total        16058                       # number of StoreCondReq accesses(hits+misses)
system.cpu2.dcache.demand_accesses::switch_cpus2.data     15326146                       # number of demand (read+write) accesses
system.cpu2.dcache.demand_accesses::total     15326146                       # number of demand (read+write) accesses
system.cpu2.dcache.overall_accesses::switch_cpus2.data     15326146                       # number of overall (read+write) accesses
system.cpu2.dcache.overall_accesses::total     15326146                       # number of overall (read+write) accesses
system.cpu2.dcache.ReadReq_miss_rate::switch_cpus2.data     0.016995                       # miss rate for ReadReq accesses
system.cpu2.dcache.ReadReq_miss_rate::total     0.016995                       # miss rate for ReadReq accesses
system.cpu2.dcache.WriteReq_miss_rate::switch_cpus2.data     0.000434                       # miss rate for WriteReq accesses
system.cpu2.dcache.WriteReq_miss_rate::total     0.000434                       # miss rate for WriteReq accesses
system.cpu2.dcache.demand_miss_rate::switch_cpus2.data     0.009513                       # miss rate for demand accesses
system.cpu2.dcache.demand_miss_rate::total     0.009513                       # miss rate for demand accesses
system.cpu2.dcache.overall_miss_rate::switch_cpus2.data     0.009513                       # miss rate for overall accesses
system.cpu2.dcache.overall_miss_rate::total     0.009513                       # miss rate for overall accesses
system.cpu2.dcache.ReadReq_avg_miss_latency::switch_cpus2.data 109791.013005                       # average ReadReq miss latency
system.cpu2.dcache.ReadReq_avg_miss_latency::total 109791.013005                       # average ReadReq miss latency
system.cpu2.dcache.WriteReq_avg_miss_latency::switch_cpus2.data 195595.366844                       # average WriteReq miss latency
system.cpu2.dcache.WriteReq_avg_miss_latency::total 195595.366844                       # average WriteReq miss latency
system.cpu2.dcache.demand_avg_miss_latency::switch_cpus2.data 111558.925094                       # average overall miss latency
system.cpu2.dcache.demand_avg_miss_latency::total 111558.925094                       # average overall miss latency
system.cpu2.dcache.overall_avg_miss_latency::switch_cpus2.data 111558.925094                       # average overall miss latency
system.cpu2.dcache.overall_avg_miss_latency::total 111558.925094                       # average overall miss latency
system.cpu2.dcache.blocked_cycles::no_mshrs            0                       # number of cycles access was blocked
system.cpu2.dcache.blocked_cycles::no_targets      1505151                       # number of cycles access was blocked
system.cpu2.dcache.blocked::no_mshrs                0                       # number of cycles access was blocked
system.cpu2.dcache.blocked::no_targets             12                       # number of cycles access was blocked
system.cpu2.dcache.avg_blocked_cycles::no_mshrs          nan                       # average number of cycles each access was blocked
system.cpu2.dcache.avg_blocked_cycles::no_targets 125429.250000                       # average number of cycles each access was blocked
system.cpu2.dcache.fast_writes                      0                       # number of fast writes performed
system.cpu2.dcache.cache_copies                     0                       # number of cache copies performed
system.cpu2.dcache.writebacks::writebacks        24940                       # number of writebacks
system.cpu2.dcache.writebacks::total            24940                       # number of writebacks
system.cpu2.dcache.ReadReq_mshr_hits::switch_cpus2.data        92208                       # number of ReadReq MSHR hits
system.cpu2.dcache.ReadReq_mshr_hits::total        92208                       # number of ReadReq MSHR hits
system.cpu2.dcache.WriteReq_mshr_hits::switch_cpus2.data         2997                       # number of WriteReq MSHR hits
system.cpu2.dcache.WriteReq_mshr_hits::total         2997                       # number of WriteReq MSHR hits
system.cpu2.dcache.demand_mshr_hits::switch_cpus2.data        95205                       # number of demand (read+write) MSHR hits
system.cpu2.dcache.demand_mshr_hits::total        95205                       # number of demand (read+write) MSHR hits
system.cpu2.dcache.overall_mshr_hits::switch_cpus2.data        95205                       # number of overall MSHR hits
system.cpu2.dcache.overall_mshr_hits::total        95205                       # number of overall MSHR hits
system.cpu2.dcache.ReadReq_mshr_misses::switch_cpus2.data        50585                       # number of ReadReq MSHR misses
system.cpu2.dcache.ReadReq_mshr_misses::total        50585                       # number of ReadReq MSHR misses
system.cpu2.dcache.WriteReq_mshr_misses::switch_cpus2.data            7                       # number of WriteReq MSHR misses
system.cpu2.dcache.WriteReq_mshr_misses::total            7                       # number of WriteReq MSHR misses
system.cpu2.dcache.demand_mshr_misses::switch_cpus2.data        50592                       # number of demand (read+write) MSHR misses
system.cpu2.dcache.demand_mshr_misses::total        50592                       # number of demand (read+write) MSHR misses
system.cpu2.dcache.overall_mshr_misses::switch_cpus2.data        50592                       # number of overall MSHR misses
system.cpu2.dcache.overall_mshr_misses::total        50592                       # number of overall MSHR misses
system.cpu2.dcache.ReadReq_mshr_miss_latency::switch_cpus2.data   4619480680                       # number of ReadReq MSHR miss cycles
system.cpu2.dcache.ReadReq_mshr_miss_latency::total   4619480680                       # number of ReadReq MSHR miss cycles
system.cpu2.dcache.WriteReq_mshr_miss_latency::switch_cpus2.data      1575371                       # number of WriteReq MSHR miss cycles
system.cpu2.dcache.WriteReq_mshr_miss_latency::total      1575371                       # number of WriteReq MSHR miss cycles
system.cpu2.dcache.demand_mshr_miss_latency::switch_cpus2.data   4621056051                       # number of demand (read+write) MSHR miss cycles
system.cpu2.dcache.demand_mshr_miss_latency::total   4621056051                       # number of demand (read+write) MSHR miss cycles
system.cpu2.dcache.overall_mshr_miss_latency::switch_cpus2.data   4621056051                       # number of overall MSHR miss cycles
system.cpu2.dcache.overall_mshr_miss_latency::total   4621056051                       # number of overall MSHR miss cycles
system.cpu2.dcache.ReadReq_mshr_miss_rate::switch_cpus2.data     0.006020                       # mshr miss rate for ReadReq accesses
system.cpu2.dcache.ReadReq_mshr_miss_rate::total     0.006020                       # mshr miss rate for ReadReq accesses
system.cpu2.dcache.WriteReq_mshr_miss_rate::switch_cpus2.data     0.000001                       # mshr miss rate for WriteReq accesses
system.cpu2.dcache.WriteReq_mshr_miss_rate::total     0.000001                       # mshr miss rate for WriteReq accesses
system.cpu2.dcache.demand_mshr_miss_rate::switch_cpus2.data     0.003301                       # mshr miss rate for demand accesses
system.cpu2.dcache.demand_mshr_miss_rate::total     0.003301                       # mshr miss rate for demand accesses
system.cpu2.dcache.overall_mshr_miss_rate::switch_cpus2.data     0.003301                       # mshr miss rate for overall accesses
system.cpu2.dcache.overall_mshr_miss_rate::total     0.003301                       # mshr miss rate for overall accesses
system.cpu2.dcache.ReadReq_avg_mshr_miss_latency::switch_cpus2.data 91321.156074                       # average ReadReq mshr miss latency
system.cpu2.dcache.ReadReq_avg_mshr_miss_latency::total 91321.156074                       # average ReadReq mshr miss latency
system.cpu2.dcache.WriteReq_avg_mshr_miss_latency::switch_cpus2.data       225053                       # average WriteReq mshr miss latency
system.cpu2.dcache.WriteReq_avg_mshr_miss_latency::total       225053                       # average WriteReq mshr miss latency
system.cpu2.dcache.demand_avg_mshr_miss_latency::switch_cpus2.data 91339.659452                       # average overall mshr miss latency
system.cpu2.dcache.demand_avg_mshr_miss_latency::total 91339.659452                       # average overall mshr miss latency
system.cpu2.dcache.overall_avg_mshr_miss_latency::switch_cpus2.data 91339.659452                       # average overall mshr miss latency
system.cpu2.dcache.overall_avg_mshr_miss_latency::total 91339.659452                       # average overall mshr miss latency
system.cpu2.dcache.no_allocate_misses               0                       # Number of misses that were no-allocate

---------- End Simulation Statistics   ----------
