
---------- Begin Simulation Statistics ----------
sim_seconds                                  0.103343                       # Number of seconds simulated
sim_ticks                                103342871127                       # Number of ticks simulated
final_tick                               632980588437                       # Number of ticks from beginning of simulation (restored from checkpoints and never reset)
sim_freq                                 1000000000000                       # Frequency of simulated ticks
host_inst_rate                                 226588                       # Simulator instruction rate (inst/s)
host_op_rate                                   286116                       # Simulator op (including micro ops) rate (op/s)
host_tick_rate                                7058285                       # Simulator tick rate (ticks/s)
host_mem_usage                               16913716                       # Number of bytes of host memory used
host_seconds                                 14641.36                       # Real time elapsed on the host
sim_insts                                  3317548528                       # Number of instructions simulated
sim_ops                                    4189129866                       # Number of ops (including micro ops) simulated
system.physmem.bytes_read::switch_cpus0.inst         1408                       # Number of bytes read from this memory
system.physmem.bytes_read::switch_cpus0.data      1573888                       # Number of bytes read from this memory
system.physmem.bytes_read::switch_cpus1.inst         2048                       # Number of bytes read from this memory
system.physmem.bytes_read::switch_cpus1.data       610176                       # Number of bytes read from this memory
system.physmem.bytes_read::switch_cpus2.inst         1792                       # Number of bytes read from this memory
system.physmem.bytes_read::switch_cpus2.data       670848                       # Number of bytes read from this memory
system.physmem.bytes_read::total              2860160                       # Number of bytes read from this memory
system.physmem.bytes_inst_read::switch_cpus0.inst         1408                       # Number of instructions bytes read from this memory
system.physmem.bytes_inst_read::switch_cpus1.inst         2048                       # Number of instructions bytes read from this memory
system.physmem.bytes_inst_read::switch_cpus2.inst         1792                       # Number of instructions bytes read from this memory
system.physmem.bytes_inst_read::total            5248                       # Number of instructions bytes read from this memory
system.physmem.bytes_written::writebacks      1437696                       # Number of bytes written to this memory
system.physmem.bytes_written::total           1437696                       # Number of bytes written to this memory
system.physmem.num_reads::switch_cpus0.inst           11                       # Number of read requests responded to by this memory
system.physmem.num_reads::switch_cpus0.data        12296                       # Number of read requests responded to by this memory
system.physmem.num_reads::switch_cpus1.inst           16                       # Number of read requests responded to by this memory
system.physmem.num_reads::switch_cpus1.data         4767                       # Number of read requests responded to by this memory
system.physmem.num_reads::switch_cpus2.inst           14                       # Number of read requests responded to by this memory
system.physmem.num_reads::switch_cpus2.data         5241                       # Number of read requests responded to by this memory
system.physmem.num_reads::total                 22345                       # Number of read requests responded to by this memory
system.physmem.num_writes::writebacks           11232                       # Number of write requests responded to by this memory
system.physmem.num_writes::functional               0                       # Number of write requests responded to by this memory
system.physmem.num_writes::interrupt                0                       # Number of write requests responded to by this memory
system.physmem.num_writes::switch_cpus0.dtb.walker            0                       # Number of write requests responded to by this memory
system.physmem.num_writes::switch_cpus0.itb.walker            0                       # Number of write requests responded to by this memory
system.physmem.num_writes::switch_cpus0.inst            0                       # Number of write requests responded to by this memory
system.physmem.num_writes::switch_cpus0.data            0                       # Number of write requests responded to by this memory
system.physmem.num_writes::switch_cpus1.dtb.walker            0                       # Number of write requests responded to by this memory
system.physmem.num_writes::switch_cpus1.itb.walker            0                       # Number of write requests responded to by this memory
system.physmem.num_writes::switch_cpus1.inst            0                       # Number of write requests responded to by this memory
system.physmem.num_writes::switch_cpus1.data            0                       # Number of write requests responded to by this memory
system.physmem.num_writes::switch_cpus2.dtb.walker            0                       # Number of write requests responded to by this memory
system.physmem.num_writes::switch_cpus2.itb.walker            0                       # Number of write requests responded to by this memory
system.physmem.num_writes::switch_cpus2.inst            0                       # Number of write requests responded to by this memory
system.physmem.num_writes::switch_cpus2.data            0                       # Number of write requests responded to by this memory
system.physmem.num_writes::cpu0.dtb.walker            0                       # Number of write requests responded to by this memory
system.physmem.num_writes::cpu0.itb.walker            0                       # Number of write requests responded to by this memory
system.physmem.num_writes::cpu0.inst                0                       # Number of write requests responded to by this memory
system.physmem.num_writes::cpu0.data                0                       # Number of write requests responded to by this memory
system.physmem.num_writes::cpu1.dtb.walker            0                       # Number of write requests responded to by this memory
system.physmem.num_writes::cpu1.itb.walker            0                       # Number of write requests responded to by this memory
system.physmem.num_writes::cpu1.inst                0                       # Number of write requests responded to by this memory
system.physmem.num_writes::cpu1.data                0                       # Number of write requests responded to by this memory
system.physmem.num_writes::cpu2.dtb.walker            0                       # Number of write requests responded to by this memory
system.physmem.num_writes::cpu2.itb.walker            0                       # Number of write requests responded to by this memory
system.physmem.num_writes::cpu2.inst                0                       # Number of write requests responded to by this memory
system.physmem.num_writes::cpu2.data                0                       # Number of write requests responded to by this memory
system.physmem.num_writes::total                11232                       # Number of write requests responded to by this memory
system.physmem.bw_read::switch_cpus0.inst        13625                       # Total read bandwidth from this memory (bytes/s)
system.physmem.bw_read::switch_cpus0.data     15229768                       # Total read bandwidth from this memory (bytes/s)
system.physmem.bw_read::switch_cpus1.inst        19818                       # Total read bandwidth from this memory (bytes/s)
system.physmem.bw_read::switch_cpus1.data      5904384                       # Total read bandwidth from this memory (bytes/s)
system.physmem.bw_read::switch_cpus2.inst        17340                       # Total read bandwidth from this memory (bytes/s)
system.physmem.bw_read::switch_cpus2.data      6491478                       # Total read bandwidth from this memory (bytes/s)
system.physmem.bw_read::total                27676413                       # Total read bandwidth from this memory (bytes/s)
system.physmem.bw_inst_read::switch_cpus0.inst        13625                       # Instruction read bandwidth from this memory (bytes/s)
system.physmem.bw_inst_read::switch_cpus1.inst        19818                       # Instruction read bandwidth from this memory (bytes/s)
system.physmem.bw_inst_read::switch_cpus2.inst        17340                       # Instruction read bandwidth from this memory (bytes/s)
system.physmem.bw_inst_read::total              50782                       # Instruction read bandwidth from this memory (bytes/s)
system.physmem.bw_write::writebacks          13911903                       # Write bandwidth from this memory (bytes/s)
system.physmem.bw_write::total               13911903                       # Write bandwidth from this memory (bytes/s)
system.physmem.bw_total::writebacks          13911903                       # Total bandwidth to/from this memory (bytes/s)
system.physmem.bw_total::switch_cpus0.inst        13625                       # Total bandwidth to/from this memory (bytes/s)
system.physmem.bw_total::switch_cpus0.data     15229768                       # Total bandwidth to/from this memory (bytes/s)
system.physmem.bw_total::switch_cpus1.inst        19818                       # Total bandwidth to/from this memory (bytes/s)
system.physmem.bw_total::switch_cpus1.data      5904384                       # Total bandwidth to/from this memory (bytes/s)
system.physmem.bw_total::switch_cpus2.inst        17340                       # Total bandwidth to/from this memory (bytes/s)
system.physmem.bw_total::switch_cpus2.data      6491478                       # Total bandwidth to/from this memory (bytes/s)
system.physmem.bw_total::total               41588316                       # Total bandwidth to/from this memory (bytes/s)
system.switch_cpus0.dtb.inst_hits                   0                       # ITB inst hits
system.switch_cpus0.dtb.inst_misses                 0                       # ITB inst misses
system.switch_cpus0.dtb.read_hits                   0                       # DTB read hits
system.switch_cpus0.dtb.read_misses                 0                       # DTB read misses
system.switch_cpus0.dtb.write_hits                  0                       # DTB write hits
system.switch_cpus0.dtb.write_misses                0                       # DTB write misses
system.switch_cpus0.dtb.flush_tlb                   0                       # Number of times complete TLB was flushed
system.switch_cpus0.dtb.flush_tlb_mva               0                       # Number of times TLB was flushed by MVA
system.switch_cpus0.dtb.flush_tlb_mva_asid            0                       # Number of times TLB was flushed by MVA & ASID
system.switch_cpus0.dtb.flush_tlb_asid              0                       # Number of times TLB was flushed by ASID
system.switch_cpus0.dtb.flush_entries               0                       # Number of entries that have been flushed from TLB
system.switch_cpus0.dtb.align_faults                0                       # Number of TLB faults due to alignment restrictions
system.switch_cpus0.dtb.prefetch_faults             0                       # Number of TLB faults due to prefetch
system.switch_cpus0.dtb.domain_faults               0                       # Number of TLB faults due to domain restrictions
system.switch_cpus0.dtb.perms_faults                0                       # Number of TLB faults due to permissions restrictions
system.switch_cpus0.dtb.read_accesses               0                       # DTB read accesses
system.switch_cpus0.dtb.write_accesses              0                       # DTB write accesses
system.switch_cpus0.dtb.inst_accesses               0                       # ITB inst accesses
system.switch_cpus0.dtb.hits                        0                       # DTB hits
system.switch_cpus0.dtb.misses                      0                       # DTB misses
system.switch_cpus0.dtb.accesses                    0                       # DTB accesses
system.switch_cpus0.itb.inst_hits                   0                       # ITB inst hits
system.switch_cpus0.itb.inst_misses                 0                       # ITB inst misses
system.switch_cpus0.itb.read_hits                   0                       # DTB read hits
system.switch_cpus0.itb.read_misses                 0                       # DTB read misses
system.switch_cpus0.itb.write_hits                  0                       # DTB write hits
system.switch_cpus0.itb.write_misses                0                       # DTB write misses
system.switch_cpus0.itb.flush_tlb                   0                       # Number of times complete TLB was flushed
system.switch_cpus0.itb.flush_tlb_mva               0                       # Number of times TLB was flushed by MVA
system.switch_cpus0.itb.flush_tlb_mva_asid            0                       # Number of times TLB was flushed by MVA & ASID
system.switch_cpus0.itb.flush_tlb_asid              0                       # Number of times TLB was flushed by ASID
system.switch_cpus0.itb.flush_entries               0                       # Number of entries that have been flushed from TLB
system.switch_cpus0.itb.align_faults                0                       # Number of TLB faults due to alignment restrictions
system.switch_cpus0.itb.prefetch_faults             0                       # Number of TLB faults due to prefetch
system.switch_cpus0.itb.domain_faults               0                       # Number of TLB faults due to domain restrictions
system.switch_cpus0.itb.perms_faults                0                       # Number of TLB faults due to permissions restrictions
system.switch_cpus0.itb.read_accesses               0                       # DTB read accesses
system.switch_cpus0.itb.write_accesses              0                       # DTB write accesses
system.switch_cpus0.itb.inst_accesses               0                       # ITB inst accesses
system.switch_cpus0.itb.hits                        0                       # DTB hits
system.switch_cpus0.itb.misses                      0                       # DTB misses
system.switch_cpus0.itb.accesses                    0                       # DTB accesses
system.cpu0.workload.num_syscalls                   0                       # Number of system calls
system.switch_cpus0.numCycles               247824632                       # number of cpu cycles simulated
system.switch_cpus0.numWorkItemsStarted             0                       # number of work items this cpu started
system.switch_cpus0.numWorkItemsCompleted            0                       # number of work items this cpu completed
system.switch_cpus0.BPredUnit.lookups        21410856                       # Number of BP lookups
system.switch_cpus0.BPredUnit.condPredicted     17435413                       # Number of conditional branches predicted
system.switch_cpus0.BPredUnit.condIncorrect      1919288                       # Number of conditional branches incorrect
system.switch_cpus0.BPredUnit.BTBLookups      8809854                       # Number of BTB lookups
system.switch_cpus0.BPredUnit.BTBHits         8137841                       # Number of BTB hits
system.switch_cpus0.BPredUnit.BTBCorrect            0                       # Number of correct BTB predictions (this stat may not work properly.
system.switch_cpus0.BPredUnit.usedRAS         2236882                       # Number of times the RAS was used to get a target.
system.switch_cpus0.BPredUnit.RASInCorrect        87195                       # Number of incorrect RAS predictions.
system.switch_cpus0.fetch.icacheStallCycles    193710085                       # Number of cycles fetch is stalled on an Icache miss
system.switch_cpus0.fetch.Insts             120525974                       # Number of instructions fetch has processed
system.switch_cpus0.fetch.Branches           21410856                       # Number of branches that fetch encountered
system.switch_cpus0.fetch.predictedBranches     10374723                       # Number of branches that fetch has predicted taken
system.switch_cpus0.fetch.Cycles             25474606                       # Number of cycles fetch has run and was not squashing or blocked
system.switch_cpus0.fetch.SquashCycles        5743456                       # Number of cycles fetch has spent squashing
system.switch_cpus0.fetch.BlockedCycles       7365873                       # Number of cycles fetch has spent blocked
system.switch_cpus0.fetch.CacheLines         11852061                       # Number of cache lines fetched
system.switch_cpus0.fetch.IcacheSquashes      1918866                       # Number of outstanding Icache misses that were squashed
system.switch_cpus0.fetch.rateDist::samples    230343490                       # Number of instructions fetched each cycle (Total)
system.switch_cpus0.fetch.rateDist::mean     0.632706                       # Number of instructions fetched each cycle (Total)
system.switch_cpus0.fetch.rateDist::stdev     2.002643                       # Number of instructions fetched each cycle (Total)
system.switch_cpus0.fetch.rateDist::underflows            0      0.00%      0.00% # Number of instructions fetched each cycle (Total)
system.switch_cpus0.fetch.rateDist::0       204868884     88.94%     88.94% # Number of instructions fetched each cycle (Total)
system.switch_cpus0.fetch.rateDist::1         2725993      1.18%     90.12% # Number of instructions fetched each cycle (Total)
system.switch_cpus0.fetch.rateDist::2         2139857      0.93%     91.05% # Number of instructions fetched each cycle (Total)
system.switch_cpus0.fetch.rateDist::3         2310496      1.00%     92.06% # Number of instructions fetched each cycle (Total)
system.switch_cpus0.fetch.rateDist::4         1953413      0.85%     92.90% # Number of instructions fetched each cycle (Total)
system.switch_cpus0.fetch.rateDist::5         1107936      0.48%     93.39% # Number of instructions fetched each cycle (Total)
system.switch_cpus0.fetch.rateDist::6          758134      0.33%     93.71% # Number of instructions fetched each cycle (Total)
system.switch_cpus0.fetch.rateDist::7         1929763      0.84%     94.55% # Number of instructions fetched each cycle (Total)
system.switch_cpus0.fetch.rateDist::8        12549014      5.45%    100.00% # Number of instructions fetched each cycle (Total)
system.switch_cpus0.fetch.rateDist::overflows            0      0.00%    100.00% # Number of instructions fetched each cycle (Total)
system.switch_cpus0.fetch.rateDist::min_value            0                       # Number of instructions fetched each cycle (Total)
system.switch_cpus0.fetch.rateDist::max_value            8                       # Number of instructions fetched each cycle (Total)
system.switch_cpus0.fetch.rateDist::total    230343490                       # Number of instructions fetched each cycle (Total)
system.switch_cpus0.fetch.branchRate         0.086395                       # Number of branch fetches per cycle
system.switch_cpus0.fetch.rate               0.486336                       # Number of inst fetches per cycle
system.switch_cpus0.decode.IdleCycles       191385863                       # Number of cycles decode is idle
system.switch_cpus0.decode.BlockedCycles      9728842                       # Number of cycles decode is blocked
system.switch_cpus0.decode.RunCycles         25333680                       # Number of cycles decode is running
system.switch_cpus0.decode.UnblockCycles       108711                       # Number of cycles decode is unblocking
system.switch_cpus0.decode.SquashCycles       3786390                       # Number of cycles decode is squashing
system.switch_cpus0.decode.BranchResolved      3649398                       # Number of times decode resolved a branch
system.switch_cpus0.decode.BranchMispred         6536                       # Number of times decode detected a branch misprediction
system.switch_cpus0.decode.DecodedInsts     145461136                       # Number of instructions handled by decode
system.switch_cpus0.decode.SquashedInsts        51730                       # Number of squashed instructions handled by decode
system.switch_cpus0.rename.SquashCycles       3786390                       # Number of cycles rename is squashing
system.switch_cpus0.rename.IdleCycles       191641899                       # Number of cycles rename is idle
system.switch_cpus0.rename.BlockCycles        6277355                       # Number of cycles rename is blocking
system.switch_cpus0.rename.serializeStallCycles      2312416                       # count of cycles rename stalled for serializing inst
system.switch_cpus0.rename.RunCycles         25187362                       # Number of cycles rename is running
system.switch_cpus0.rename.UnblockCycles      1138056                       # Number of cycles rename is unblocking
system.switch_cpus0.rename.RenamedInsts     145246971                       # Number of instructions processed by rename
system.switch_cpus0.rename.ROBFullEvents         1472                       # Number of times rename has blocked due to ROB full
system.switch_cpus0.rename.IQFullEvents        418897                       # Number of times rename has blocked due to IQ full
system.switch_cpus0.rename.LSQFullEvents       565928                       # Number of times rename has blocked due to LSQ full
system.switch_cpus0.rename.FullRegisterEvents        29100                       # Number of times there has been no free registers
system.switch_cpus0.rename.RenamedOperands    203243795                       # Number of destination operands rename has renamed
system.switch_cpus0.rename.RenameLookups    676939090                       # Number of register rename lookups that rename has made
system.switch_cpus0.rename.int_rename_lookups    676939090                       # Number of integer rename lookups
system.switch_cpus0.rename.CommittedMaps    168450697                       # Number of HB maps that are committed
system.switch_cpus0.rename.UndoneMaps        34793089                       # Number of HB maps that are undone due to squashing
system.switch_cpus0.rename.serializingInsts        33813                       # count of serializing insts renamed
system.switch_cpus0.rename.tempSerializingInsts        17733                       # count of temporary serializing insts renamed
system.switch_cpus0.rename.skidInsts          3596214                       # count of insts added to the skid buffer
system.switch_cpus0.memDep0.insertedLoads     13981444                       # Number of loads inserted to the mem dependence unit.
system.switch_cpus0.memDep0.insertedStores      7849909                       # Number of stores inserted to the mem dependence unit.
system.switch_cpus0.memDep0.conflictingLoads       294589                       # Number of conflicting loads.
system.switch_cpus0.memDep0.conflictingStores      1693145                       # Number of conflicting stores.
system.switch_cpus0.iq.iqInstsAdded         144731759                       # Number of instructions added to the IQ (excludes non-spec)
system.switch_cpus0.iq.iqNonSpecInstsAdded        33813                       # Number of non-speculative instructions added to the IQ
system.switch_cpus0.iq.iqInstsIssued        137418302                       # Number of instructions issued
system.switch_cpus0.iq.iqSquashedInstsIssued        82759                       # Number of squashed instructions issued
system.switch_cpus0.iq.iqSquashedInstsExamined     20232984                       # Number of squashed instructions iterated over during squash; mainly for profiling
system.switch_cpus0.iq.iqSquashedOperandsExamined     41367096                       # Number of squashed operands that are examined and possibly removed from graph
system.switch_cpus0.iq.iqSquashedNonSpecRemoved         1653                       # Number of squashed non-spec instructions that were removed
system.switch_cpus0.iq.issued_per_cycle::samples    230343490                       # Number of insts issued each cycle
system.switch_cpus0.iq.issued_per_cycle::mean     0.596580                       # Number of insts issued each cycle
system.switch_cpus0.iq.issued_per_cycle::stdev     1.301100                       # Number of insts issued each cycle
system.switch_cpus0.iq.issued_per_cycle::underflows            0      0.00%      0.00% # Number of insts issued each cycle
system.switch_cpus0.iq.issued_per_cycle::0    172311733     74.81%     74.81% # Number of insts issued each cycle
system.switch_cpus0.iq.issued_per_cycle::1     24486446     10.63%     85.44% # Number of insts issued each cycle
system.switch_cpus0.iq.issued_per_cycle::2     12384440      5.38%     90.81% # Number of insts issued each cycle
system.switch_cpus0.iq.issued_per_cycle::3      7986034      3.47%     94.28% # Number of insts issued each cycle
system.switch_cpus0.iq.issued_per_cycle::4      6570833      2.85%     97.13% # Number of insts issued each cycle
system.switch_cpus0.iq.issued_per_cycle::5      2586160      1.12%     98.26% # Number of insts issued each cycle
system.switch_cpus0.iq.issued_per_cycle::6      3186406      1.38%     99.64% # Number of insts issued each cycle
system.switch_cpus0.iq.issued_per_cycle::7       779198      0.34%     99.98% # Number of insts issued each cycle
system.switch_cpus0.iq.issued_per_cycle::8        52240      0.02%    100.00% # Number of insts issued each cycle
system.switch_cpus0.iq.issued_per_cycle::overflows            0      0.00%    100.00% # Number of insts issued each cycle
system.switch_cpus0.iq.issued_per_cycle::min_value            0                       # Number of insts issued each cycle
system.switch_cpus0.iq.issued_per_cycle::max_value            8                       # Number of insts issued each cycle
system.switch_cpus0.iq.issued_per_cycle::total    230343490                       # Number of insts issued each cycle
system.switch_cpus0.iq.fu_full::No_OpClass            0      0.00%      0.00% # attempts to use FU when none available
system.switch_cpus0.iq.fu_full::IntAlu         962076     75.32%     75.32% # attempts to use FU when none available
system.switch_cpus0.iq.fu_full::IntMult             0      0.00%     75.32% # attempts to use FU when none available
system.switch_cpus0.iq.fu_full::IntDiv              0      0.00%     75.32% # attempts to use FU when none available
system.switch_cpus0.iq.fu_full::FloatAdd            0      0.00%     75.32% # attempts to use FU when none available
system.switch_cpus0.iq.fu_full::FloatCmp            0      0.00%     75.32% # attempts to use FU when none available
system.switch_cpus0.iq.fu_full::FloatCvt            0      0.00%     75.32% # attempts to use FU when none available
system.switch_cpus0.iq.fu_full::FloatMult            0      0.00%     75.32% # attempts to use FU when none available
system.switch_cpus0.iq.fu_full::FloatDiv            0      0.00%     75.32% # attempts to use FU when none available
system.switch_cpus0.iq.fu_full::FloatSqrt            0      0.00%     75.32% # attempts to use FU when none available
system.switch_cpus0.iq.fu_full::SimdAdd             0      0.00%     75.32% # attempts to use FU when none available
system.switch_cpus0.iq.fu_full::SimdAddAcc            0      0.00%     75.32% # attempts to use FU when none available
system.switch_cpus0.iq.fu_full::SimdAlu             0      0.00%     75.32% # attempts to use FU when none available
system.switch_cpus0.iq.fu_full::SimdCmp             0      0.00%     75.32% # attempts to use FU when none available
system.switch_cpus0.iq.fu_full::SimdCvt             0      0.00%     75.32% # attempts to use FU when none available
system.switch_cpus0.iq.fu_full::SimdMisc            0      0.00%     75.32% # attempts to use FU when none available
system.switch_cpus0.iq.fu_full::SimdMult            0      0.00%     75.32% # attempts to use FU when none available
system.switch_cpus0.iq.fu_full::SimdMultAcc            0      0.00%     75.32% # attempts to use FU when none available
system.switch_cpus0.iq.fu_full::SimdShift            0      0.00%     75.32% # attempts to use FU when none available
system.switch_cpus0.iq.fu_full::SimdShiftAcc            0      0.00%     75.32% # attempts to use FU when none available
system.switch_cpus0.iq.fu_full::SimdSqrt            0      0.00%     75.32% # attempts to use FU when none available
system.switch_cpus0.iq.fu_full::SimdFloatAdd            0      0.00%     75.32% # attempts to use FU when none available
system.switch_cpus0.iq.fu_full::SimdFloatAlu            0      0.00%     75.32% # attempts to use FU when none available
system.switch_cpus0.iq.fu_full::SimdFloatCmp            0      0.00%     75.32% # attempts to use FU when none available
system.switch_cpus0.iq.fu_full::SimdFloatCvt            0      0.00%     75.32% # attempts to use FU when none available
system.switch_cpus0.iq.fu_full::SimdFloatDiv            0      0.00%     75.32% # attempts to use FU when none available
system.switch_cpus0.iq.fu_full::SimdFloatMisc            0      0.00%     75.32% # attempts to use FU when none available
system.switch_cpus0.iq.fu_full::SimdFloatMult            0      0.00%     75.32% # attempts to use FU when none available
system.switch_cpus0.iq.fu_full::SimdFloatMultAcc            0      0.00%     75.32% # attempts to use FU when none available
system.switch_cpus0.iq.fu_full::SimdFloatSqrt            0      0.00%     75.32% # attempts to use FU when none available
system.switch_cpus0.iq.fu_full::MemRead        146155     11.44%     86.77% # attempts to use FU when none available
system.switch_cpus0.iq.fu_full::MemWrite       169033     13.23%    100.00% # attempts to use FU when none available
system.switch_cpus0.iq.fu_full::IprAccess            0      0.00%    100.00% # attempts to use FU when none available
system.switch_cpus0.iq.fu_full::InstPrefetch            0      0.00%    100.00% # attempts to use FU when none available
system.switch_cpus0.iq.FU_type_0::No_OpClass            0      0.00%      0.00% # Type of FU issued
system.switch_cpus0.iq.FU_type_0::IntAlu    113930821     82.91%     82.91% # Type of FU issued
system.switch_cpus0.iq.FU_type_0::IntMult      2016210      1.47%     84.38% # Type of FU issued
system.switch_cpus0.iq.FU_type_0::IntDiv            0      0.00%     84.38% # Type of FU issued
system.switch_cpus0.iq.FU_type_0::FloatAdd            0      0.00%     84.38% # Type of FU issued
system.switch_cpus0.iq.FU_type_0::FloatCmp            0      0.00%     84.38% # Type of FU issued
system.switch_cpus0.iq.FU_type_0::FloatCvt            0      0.00%     84.38% # Type of FU issued
system.switch_cpus0.iq.FU_type_0::FloatMult            0      0.00%     84.38% # Type of FU issued
system.switch_cpus0.iq.FU_type_0::FloatDiv            0      0.00%     84.38% # Type of FU issued
system.switch_cpus0.iq.FU_type_0::FloatSqrt            0      0.00%     84.38% # Type of FU issued
system.switch_cpus0.iq.FU_type_0::SimdAdd            0      0.00%     84.38% # Type of FU issued
system.switch_cpus0.iq.FU_type_0::SimdAddAcc            0      0.00%     84.38% # Type of FU issued
system.switch_cpus0.iq.FU_type_0::SimdAlu            0      0.00%     84.38% # Type of FU issued
system.switch_cpus0.iq.FU_type_0::SimdCmp            0      0.00%     84.38% # Type of FU issued
system.switch_cpus0.iq.FU_type_0::SimdCvt            0      0.00%     84.38% # Type of FU issued
system.switch_cpus0.iq.FU_type_0::SimdMisc            0      0.00%     84.38% # Type of FU issued
system.switch_cpus0.iq.FU_type_0::SimdMult            0      0.00%     84.38% # Type of FU issued
system.switch_cpus0.iq.FU_type_0::SimdMultAcc            0      0.00%     84.38% # Type of FU issued
system.switch_cpus0.iq.FU_type_0::SimdShift            0      0.00%     84.38% # Type of FU issued
system.switch_cpus0.iq.FU_type_0::SimdShiftAcc            0      0.00%     84.38% # Type of FU issued
system.switch_cpus0.iq.FU_type_0::SimdSqrt            0      0.00%     84.38% # Type of FU issued
system.switch_cpus0.iq.FU_type_0::SimdFloatAdd            0      0.00%     84.38% # Type of FU issued
system.switch_cpus0.iq.FU_type_0::SimdFloatAlu            0      0.00%     84.38% # Type of FU issued
system.switch_cpus0.iq.FU_type_0::SimdFloatCmp            0      0.00%     84.38% # Type of FU issued
system.switch_cpus0.iq.FU_type_0::SimdFloatCvt            0      0.00%     84.38% # Type of FU issued
system.switch_cpus0.iq.FU_type_0::SimdFloatDiv            0      0.00%     84.38% # Type of FU issued
system.switch_cpus0.iq.FU_type_0::SimdFloatMisc        16080      0.01%     84.39% # Type of FU issued
system.switch_cpus0.iq.FU_type_0::SimdFloatMult            0      0.00%     84.39% # Type of FU issued
system.switch_cpus0.iq.FU_type_0::SimdFloatMultAcc            0      0.00%     84.39% # Type of FU issued
system.switch_cpus0.iq.FU_type_0::SimdFloatSqrt            0      0.00%     84.39% # Type of FU issued
system.switch_cpus0.iq.FU_type_0::MemRead     13650628      9.93%     94.32% # Type of FU issued
system.switch_cpus0.iq.FU_type_0::MemWrite      7804563      5.68%    100.00% # Type of FU issued
system.switch_cpus0.iq.FU_type_0::IprAccess            0      0.00%    100.00% # Type of FU issued
system.switch_cpus0.iq.FU_type_0::InstPrefetch            0      0.00%    100.00% # Type of FU issued
system.switch_cpus0.iq.FU_type_0::total     137418302                       # Type of FU issued
system.switch_cpus0.iq.rate                  0.554498                       # Inst issue rate
system.switch_cpus0.iq.fu_busy_cnt            1277264                       # FU busy when requested
system.switch_cpus0.iq.fu_busy_rate          0.009295                       # FU busy rate (busy events/executed inst)
system.switch_cpus0.iq.int_inst_queue_reads    506540117                       # Number of integer instruction queue reads
system.switch_cpus0.iq.int_inst_queue_writes    164999255                       # Number of integer instruction queue writes
system.switch_cpus0.iq.int_inst_queue_wakeup_accesses    133601069                       # Number of integer instruction queue wakeup accesses
system.switch_cpus0.iq.fp_inst_queue_reads            0                       # Number of floating instruction queue reads
system.switch_cpus0.iq.fp_inst_queue_writes            0                       # Number of floating instruction queue writes
system.switch_cpus0.iq.fp_inst_queue_wakeup_accesses            0                       # Number of floating instruction queue wakeup accesses
system.switch_cpus0.iq.int_alu_accesses     138695566                       # Number of integer alu accesses
system.switch_cpus0.iq.fp_alu_accesses              0                       # Number of floating point alu accesses
system.switch_cpus0.iew.lsq.thread0.forwLoads       153087                       # Number of loads that had data forwarded from stores
system.switch_cpus0.iew.lsq.thread0.invAddrLoads            0                       # Number of loads ignored due to an invalid address
system.switch_cpus0.iew.lsq.thread0.squashedLoads      1829844                       # Number of loads squashed
system.switch_cpus0.iew.lsq.thread0.ignoredResponses           52                       # Number of memory responses ignored because the instruction is squashed
system.switch_cpus0.iew.lsq.thread0.memOrderViolation          700                       # Number of memory ordering violations
system.switch_cpus0.iew.lsq.thread0.squashedStores       140343                       # Number of stores squashed
system.switch_cpus0.iew.lsq.thread0.invAddrSwpfs            0                       # Number of software prefetches ignored due to an invalid address
system.switch_cpus0.iew.lsq.thread0.blockedLoads            0                       # Number of blocked loads due to partial load-store forwarding
system.switch_cpus0.iew.lsq.thread0.rescheduledLoads          550                       # Number of loads that were rescheduled
system.switch_cpus0.iew.lsq.thread0.cacheBlocked            0                       # Number of times an access to memory failed due to the cache being blocked
system.switch_cpus0.iew.iewIdleCycles               0                       # Number of cycles IEW is idle
system.switch_cpus0.iew.iewSquashCycles       3786390                       # Number of cycles IEW is squashing
system.switch_cpus0.iew.iewBlockCycles        5561304                       # Number of cycles IEW is blocking
system.switch_cpus0.iew.iewUnblockCycles       280916                       # Number of cycles IEW is unblocking
system.switch_cpus0.iew.iewDispatchedInsts    144765572                       # Number of instructions dispatched to IQ
system.switch_cpus0.iew.iewDispSquashedInsts          318                       # Number of squashed instructions skipped by dispatch
system.switch_cpus0.iew.iewDispLoadInsts     13981444                       # Number of dispatched load instructions
system.switch_cpus0.iew.iewDispStoreInsts      7849909                       # Number of dispatched store instructions
system.switch_cpus0.iew.iewDispNonSpecInsts        17733                       # Number of dispatched non-speculative instructions
system.switch_cpus0.iew.iewIQFullEvents        217799                       # Number of times the IQ has become full, causing a stall
system.switch_cpus0.iew.iewLSQFullEvents        12579                       # Number of times the LSQ has become full, causing a stall
system.switch_cpus0.iew.memOrderViolationEvents          700                       # Number of memory order violations
system.switch_cpus0.iew.predictedTakenIncorrect      1149628                       # Number of branches that were predicted taken incorrectly
system.switch_cpus0.iew.predictedNotTakenIncorrect      1065898                       # Number of branches that were predicted not taken incorrectly
system.switch_cpus0.iew.branchMispredicts      2215526                       # Number of branch mispredicts detected at execute
system.switch_cpus0.iew.iewExecutedInsts    134828895                       # Number of executed instructions
system.switch_cpus0.iew.iewExecLoadInsts     13517523                       # Number of load instructions executed
system.switch_cpus0.iew.iewExecSquashedInsts      2589407                       # Number of squashed instructions skipped in execute
system.switch_cpus0.iew.exec_swp                    0                       # number of swp insts executed
system.switch_cpus0.iew.exec_nop                    0                       # number of nop insts executed
system.switch_cpus0.iew.exec_refs            21321472                       # number of memory reference insts executed
system.switch_cpus0.iew.exec_branches        19239277                       # Number of branches executed
system.switch_cpus0.iew.exec_stores           7803949                       # Number of stores executed
system.switch_cpus0.iew.exec_rate            0.544050                       # Inst execution rate
system.switch_cpus0.iew.wb_sent             133603524                       # cumulative count of insts sent to commit
system.switch_cpus0.iew.wb_count            133601069                       # cumulative count of insts written-back
system.switch_cpus0.iew.wb_producers         79387996                       # num instructions producing a value
system.switch_cpus0.iew.wb_consumers        213702594                       # num instructions consuming a value
system.switch_cpus0.iew.wb_penalized                0                       # number of instrctions required to write to 'other' IQ
system.switch_cpus0.iew.wb_rate              0.539095                       # insts written-back per cycle
system.switch_cpus0.iew.wb_fanout            0.371488                       # average fanout of values written-back
system.switch_cpus0.iew.wb_penalized_rate            0                       # fraction of instructions written-back that wrote to 'other' IQ
system.switch_cpus0.commit.commitCommittedInsts    100000001                       # The number of committed instructions
system.switch_cpus0.commit.commitCommittedOps    122466363                       # The number of committed instructions
system.switch_cpus0.commit.commitSquashedInsts     22308755                       # The number of squashed insts skipped by commit
system.switch_cpus0.commit.commitNonSpecStalls        32160                       # The number of times commit has been forced to stall to communicate backwards
system.switch_cpus0.commit.branchMispredicts      1943439                       # The number of times a branch was mispredicted
system.switch_cpus0.commit.committed_per_cycle::samples    226557100                       # Number of insts commited each cycle
system.switch_cpus0.commit.committed_per_cycle::mean     0.540554                       # Number of insts commited each cycle
system.switch_cpus0.commit.committed_per_cycle::stdev     1.393782                       # Number of insts commited each cycle
system.switch_cpus0.commit.committed_per_cycle::underflows            0      0.00%      0.00% # Number of insts commited each cycle
system.switch_cpus0.commit.committed_per_cycle::0    176769662     78.02%     78.02% # Number of insts commited each cycle
system.switch_cpus0.commit.committed_per_cycle::1     23323765     10.29%     88.32% # Number of insts commited each cycle
system.switch_cpus0.commit.committed_per_cycle::2     10838365      4.78%     93.10% # Number of insts commited each cycle
system.switch_cpus0.commit.committed_per_cycle::3      4821856      2.13%     95.23% # Number of insts commited each cycle
system.switch_cpus0.commit.committed_per_cycle::4      3658639      1.61%     96.85% # Number of insts commited each cycle
system.switch_cpus0.commit.committed_per_cycle::5      1543711      0.68%     97.53% # Number of insts commited each cycle
system.switch_cpus0.commit.committed_per_cycle::6      1532503      0.68%     98.20% # Number of insts commited each cycle
system.switch_cpus0.commit.committed_per_cycle::7      1096621      0.48%     98.69% # Number of insts commited each cycle
system.switch_cpus0.commit.committed_per_cycle::8      2971978      1.31%    100.00% # Number of insts commited each cycle
system.switch_cpus0.commit.committed_per_cycle::overflows            0      0.00%    100.00% # Number of insts commited each cycle
system.switch_cpus0.commit.committed_per_cycle::min_value            0                       # Number of insts commited each cycle
system.switch_cpus0.commit.committed_per_cycle::max_value            8                       # Number of insts commited each cycle
system.switch_cpus0.commit.committed_per_cycle::total    226557100                       # Number of insts commited each cycle
system.switch_cpus0.commit.committedInsts    100000001                       # Number of instructions committed
system.switch_cpus0.commit.committedOps     122466363                       # Number of ops (including micro ops) committed
system.switch_cpus0.commit.swp_count                0                       # Number of s/w prefetches committed
system.switch_cpus0.commit.refs              19861166                       # Number of memory references committed
system.switch_cpus0.commit.loads             12151600                       # Number of loads committed
system.switch_cpus0.commit.membars              16080                       # Number of memory barriers committed
system.switch_cpus0.commit.branches          17572811                       # Number of branches committed
system.switch_cpus0.commit.fp_insts                 0                       # Number of committed floating point instructions.
system.switch_cpus0.commit.int_insts        110207504                       # Number of committed integer instructions.
system.switch_cpus0.commit.function_calls      2420799                       # Number of function calls committed.
system.switch_cpus0.commit.bw_lim_events      2971978                       # number cycles where commit BW limit reached
system.switch_cpus0.commit.bw_limited               0                       # number of insts not committed due to BW limits
system.switch_cpus0.rob.rob_reads           368360240                       # The number of ROB reads
system.switch_cpus0.rob.rob_writes          293336672                       # The number of ROB writes
system.switch_cpus0.timesIdled                2865044                       # Number of times that the entire CPU went into an idle state and unscheduled itself
system.switch_cpus0.idleCycles               17481142                       # Total number of cycles that the CPU has spent unscheduled due to idling
system.switch_cpus0.committedInsts          100000001                       # Number of Instructions Simulated
system.switch_cpus0.committedOps            122466363                       # Number of Ops (including micro ops) Simulated
system.switch_cpus0.committedInsts_total    100000001                       # Number of Instructions Simulated
system.switch_cpus0.cpi                      2.478246                       # CPI: Cycles Per Instruction
system.switch_cpus0.cpi_total                2.478246                       # CPI: Total CPI of All Threads
system.switch_cpus0.ipc                      0.403511                       # IPC: Instructions Per Cycle
system.switch_cpus0.ipc_total                0.403511                       # IPC: Total IPC of All Threads
system.switch_cpus0.int_regfile_reads       609635130                       # number of integer regfile reads
system.switch_cpus0.int_regfile_writes      184090945                       # number of integer regfile writes
system.switch_cpus0.misc_regfile_reads      138166305                       # number of misc regfile reads
system.switch_cpus0.misc_regfile_writes         32160                       # number of misc regfile writes
system.switch_cpus1.dtb.inst_hits                   0                       # ITB inst hits
system.switch_cpus1.dtb.inst_misses                 0                       # ITB inst misses
system.switch_cpus1.dtb.read_hits                   0                       # DTB read hits
system.switch_cpus1.dtb.read_misses                 0                       # DTB read misses
system.switch_cpus1.dtb.write_hits                  0                       # DTB write hits
system.switch_cpus1.dtb.write_misses                0                       # DTB write misses
system.switch_cpus1.dtb.flush_tlb                   0                       # Number of times complete TLB was flushed
system.switch_cpus1.dtb.flush_tlb_mva               0                       # Number of times TLB was flushed by MVA
system.switch_cpus1.dtb.flush_tlb_mva_asid            0                       # Number of times TLB was flushed by MVA & ASID
system.switch_cpus1.dtb.flush_tlb_asid              0                       # Number of times TLB was flushed by ASID
system.switch_cpus1.dtb.flush_entries               0                       # Number of entries that have been flushed from TLB
system.switch_cpus1.dtb.align_faults                0                       # Number of TLB faults due to alignment restrictions
system.switch_cpus1.dtb.prefetch_faults             0                       # Number of TLB faults due to prefetch
system.switch_cpus1.dtb.domain_faults               0                       # Number of TLB faults due to domain restrictions
system.switch_cpus1.dtb.perms_faults                0                       # Number of TLB faults due to permissions restrictions
system.switch_cpus1.dtb.read_accesses               0                       # DTB read accesses
system.switch_cpus1.dtb.write_accesses              0                       # DTB write accesses
system.switch_cpus1.dtb.inst_accesses               0                       # ITB inst accesses
system.switch_cpus1.dtb.hits                        0                       # DTB hits
system.switch_cpus1.dtb.misses                      0                       # DTB misses
system.switch_cpus1.dtb.accesses                    0                       # DTB accesses
system.switch_cpus1.itb.inst_hits                   0                       # ITB inst hits
system.switch_cpus1.itb.inst_misses                 0                       # ITB inst misses
system.switch_cpus1.itb.read_hits                   0                       # DTB read hits
system.switch_cpus1.itb.read_misses                 0                       # DTB read misses
system.switch_cpus1.itb.write_hits                  0                       # DTB write hits
system.switch_cpus1.itb.write_misses                0                       # DTB write misses
system.switch_cpus1.itb.flush_tlb                   0                       # Number of times complete TLB was flushed
system.switch_cpus1.itb.flush_tlb_mva               0                       # Number of times TLB was flushed by MVA
system.switch_cpus1.itb.flush_tlb_mva_asid            0                       # Number of times TLB was flushed by MVA & ASID
system.switch_cpus1.itb.flush_tlb_asid              0                       # Number of times TLB was flushed by ASID
system.switch_cpus1.itb.flush_entries               0                       # Number of entries that have been flushed from TLB
system.switch_cpus1.itb.align_faults                0                       # Number of TLB faults due to alignment restrictions
system.switch_cpus1.itb.prefetch_faults             0                       # Number of TLB faults due to prefetch
system.switch_cpus1.itb.domain_faults               0                       # Number of TLB faults due to domain restrictions
system.switch_cpus1.itb.perms_faults                0                       # Number of TLB faults due to permissions restrictions
system.switch_cpus1.itb.read_accesses               0                       # DTB read accesses
system.switch_cpus1.itb.write_accesses              0                       # DTB write accesses
system.switch_cpus1.itb.inst_accesses               0                       # ITB inst accesses
system.switch_cpus1.itb.hits                        0                       # DTB hits
system.switch_cpus1.itb.misses                      0                       # DTB misses
system.switch_cpus1.itb.accesses                    0                       # DTB accesses
system.cpu1.workload.num_syscalls                   0                       # Number of system calls
system.switch_cpus1.numCycles               247824631                       # number of cpu cycles simulated
system.switch_cpus1.numWorkItemsStarted             0                       # number of work items this cpu started
system.switch_cpus1.numWorkItemsCompleted            0                       # number of work items this cpu completed
system.switch_cpus1.BPredUnit.lookups        22180589                       # Number of BP lookups
system.switch_cpus1.BPredUnit.condPredicted     18202382                       # Number of conditional branches predicted
system.switch_cpus1.BPredUnit.condIncorrect      2074749                       # Number of conditional branches incorrect
system.switch_cpus1.BPredUnit.BTBLookups      9306124                       # Number of BTB lookups
system.switch_cpus1.BPredUnit.BTBHits         8726425                       # Number of BTB hits
system.switch_cpus1.BPredUnit.BTBCorrect            0                       # Number of correct BTB predictions (this stat may not work properly.
system.switch_cpus1.BPredUnit.usedRAS         2213145                       # Number of times the RAS was used to get a target.
system.switch_cpus1.BPredUnit.RASInCorrect        97143                       # Number of incorrect RAS predictions.
system.switch_cpus1.fetch.icacheStallCycles    198812175                       # Number of cycles fetch is stalled on an Icache miss
system.switch_cpus1.fetch.Insts             121656716                       # Number of instructions fetch has processed
system.switch_cpus1.fetch.Branches           22180589                       # Number of branches that fetch encountered
system.switch_cpus1.fetch.predictedBranches     10939570                       # Number of branches that fetch has predicted taken
system.switch_cpus1.fetch.Cycles             26234869                       # Number of cycles fetch has run and was not squashing or blocked
system.switch_cpus1.fetch.SquashCycles        5755365                       # Number of cycles fetch has spent squashing
system.switch_cpus1.fetch.BlockedCycles       5607512                       # Number of cycles fetch has spent blocked
system.switch_cpus1.fetch.CacheLines         12026476                       # Number of cache lines fetched
system.switch_cpus1.fetch.IcacheSquashes      2065429                       # Number of outstanding Icache misses that were squashed
system.switch_cpus1.fetch.rateDist::samples    234317237                       # Number of instructions fetched each cycle (Total)
system.switch_cpus1.fetch.rateDist::mean     0.637075                       # Number of instructions fetched each cycle (Total)
system.switch_cpus1.fetch.rateDist::stdev     1.999011                       # Number of instructions fetched each cycle (Total)
system.switch_cpus1.fetch.rateDist::underflows            0      0.00%      0.00% # Number of instructions fetched each cycle (Total)
system.switch_cpus1.fetch.rateDist::0       208082368     88.80%     88.80% # Number of instructions fetched each cycle (Total)
system.switch_cpus1.fetch.rateDist::1         1953933      0.83%     89.64% # Number of instructions fetched each cycle (Total)
system.switch_cpus1.fetch.rateDist::2         3535993      1.51%     91.15% # Number of instructions fetched each cycle (Total)
system.switch_cpus1.fetch.rateDist::3         2091262      0.89%     92.04% # Number of instructions fetched each cycle (Total)
system.switch_cpus1.fetch.rateDist::4         1714564      0.73%     92.77% # Number of instructions fetched each cycle (Total)
system.switch_cpus1.fetch.rateDist::5         1532179      0.65%     93.42% # Number of instructions fetched each cycle (Total)
system.switch_cpus1.fetch.rateDist::6          845983      0.36%     93.79% # Number of instructions fetched each cycle (Total)
system.switch_cpus1.fetch.rateDist::7         2104662      0.90%     94.68% # Number of instructions fetched each cycle (Total)
system.switch_cpus1.fetch.rateDist::8        12456293      5.32%    100.00% # Number of instructions fetched each cycle (Total)
system.switch_cpus1.fetch.rateDist::overflows            0      0.00%    100.00% # Number of instructions fetched each cycle (Total)
system.switch_cpus1.fetch.rateDist::min_value            0                       # Number of instructions fetched each cycle (Total)
system.switch_cpus1.fetch.rateDist::max_value            8                       # Number of instructions fetched each cycle (Total)
system.switch_cpus1.fetch.rateDist::total    234317237                       # Number of instructions fetched each cycle (Total)
system.switch_cpus1.fetch.branchRate         0.089501                       # Number of branch fetches per cycle
system.switch_cpus1.fetch.rate               0.490898                       # Number of inst fetches per cycle
system.switch_cpus1.decode.IdleCycles       197176650                       # Number of cycles decode is idle
system.switch_cpus1.decode.BlockedCycles      7256215                       # Number of cycles decode is blocked
system.switch_cpus1.decode.RunCycles         26157049                       # Number of cycles decode is running
system.switch_cpus1.decode.UnblockCycles        64916                       # Number of cycles decode is unblocking
system.switch_cpus1.decode.SquashCycles       3662404                       # Number of cycles decode is squashing
system.switch_cpus1.decode.BranchResolved      3644370                       # Number of times decode resolved a branch
system.switch_cpus1.decode.BranchMispred          277                       # Number of times decode detected a branch misprediction
system.switch_cpus1.decode.DecodedInsts     149209772                       # Number of instructions handled by decode
system.switch_cpus1.decode.SquashedInsts         1609                       # Number of squashed instructions handled by decode
system.switch_cpus1.rename.SquashCycles       3662404                       # Number of cycles rename is squashing
system.switch_cpus1.rename.IdleCycles       197469919                       # Number of cycles rename is idle
system.switch_cpus1.rename.BlockCycles         683239                       # Number of cycles rename is blocking
system.switch_cpus1.rename.serializeStallCycles      5678930                       # count of cycles rename stalled for serializing inst
system.switch_cpus1.rename.RunCycles         25911756                       # Number of cycles rename is running
system.switch_cpus1.rename.UnblockCycles       910986                       # Number of cycles rename is unblocking
system.switch_cpus1.rename.RenamedInsts     149160348                       # Number of instructions processed by rename
system.switch_cpus1.rename.IQFullEvents         99488                       # Number of times rename has blocked due to IQ full
system.switch_cpus1.rename.LSQFullEvents       525701                       # Number of times rename has blocked due to LSQ full
system.switch_cpus1.rename.RenamedOperands    210144329                       # Number of destination operands rename has renamed
system.switch_cpus1.rename.RenameLookups    692234871                       # Number of register rename lookups that rename has made
system.switch_cpus1.rename.int_rename_lookups    692234871                       # Number of integer rename lookups
system.switch_cpus1.rename.CommittedMaps    178496483                       # Number of HB maps that are committed
system.switch_cpus1.rename.UndoneMaps        31647839                       # Number of HB maps that are undone due to squashing
system.switch_cpus1.rename.serializingInsts        35511                       # count of serializing insts renamed
system.switch_cpus1.rename.tempSerializingInsts        17779                       # count of temporary serializing insts renamed
system.switch_cpus1.rename.skidInsts          2637193                       # count of insts added to the skid buffer
system.switch_cpus1.memDep0.insertedLoads     13874237                       # Number of loads inserted to the mem dependence unit.
system.switch_cpus1.memDep0.insertedStores      7464302                       # Number of stores inserted to the mem dependence unit.
system.switch_cpus1.memDep0.conflictingLoads        72611                       # Number of conflicting loads.
system.switch_cpus1.memDep0.conflictingStores      1688601                       # Number of conflicting stores.
system.switch_cpus1.iq.iqInstsAdded         148024011                       # Number of instructions added to the IQ (excludes non-spec)
system.switch_cpus1.iq.iqNonSpecInstsAdded        35511                       # Number of non-speculative instructions added to the IQ
system.switch_cpus1.iq.iqInstsIssued        141134551                       # Number of instructions issued
system.switch_cpus1.iq.iqSquashedInstsIssued        66000                       # Number of squashed instructions issued
system.switch_cpus1.iq.iqSquashedInstsExamined     17547205                       # Number of squashed instructions iterated over during squash; mainly for profiling
system.switch_cpus1.iq.iqSquashedOperandsExamined     36283061                       # Number of squashed operands that are examined and possibly removed from graph
system.switch_cpus1.iq.iqSquashedNonSpecRemoved           47                       # Number of squashed non-spec instructions that were removed
system.switch_cpus1.iq.issued_per_cycle::samples    234317237                       # Number of insts issued each cycle
system.switch_cpus1.iq.issued_per_cycle::mean     0.602323                       # Number of insts issued each cycle
system.switch_cpus1.iq.issued_per_cycle::stdev     1.289457                       # Number of insts issued each cycle
system.switch_cpus1.iq.issued_per_cycle::underflows            0      0.00%      0.00% # Number of insts issued each cycle
system.switch_cpus1.iq.issued_per_cycle::0    175551117     74.92%     74.92% # Number of insts issued each cycle
system.switch_cpus1.iq.issued_per_cycle::1     23383477      9.98%     84.90% # Number of insts issued each cycle
system.switch_cpus1.iq.issued_per_cycle::2     12237765      5.22%     90.12% # Number of insts issued each cycle
system.switch_cpus1.iq.issued_per_cycle::3      8623054      3.68%     93.80% # Number of insts issued each cycle
system.switch_cpus1.iq.issued_per_cycle::4      8629240      3.68%     97.49% # Number of insts issued each cycle
system.switch_cpus1.iq.issued_per_cycle::5      3088118      1.32%     98.80% # Number of insts issued each cycle
system.switch_cpus1.iq.issued_per_cycle::6      2356105      1.01%     99.81% # Number of insts issued each cycle
system.switch_cpus1.iq.issued_per_cycle::7       274686      0.12%     99.93% # Number of insts issued each cycle
system.switch_cpus1.iq.issued_per_cycle::8       173675      0.07%    100.00% # Number of insts issued each cycle
system.switch_cpus1.iq.issued_per_cycle::overflows            0      0.00%    100.00% # Number of insts issued each cycle
system.switch_cpus1.iq.issued_per_cycle::min_value            0                       # Number of insts issued each cycle
system.switch_cpus1.iq.issued_per_cycle::max_value            8                       # Number of insts issued each cycle
system.switch_cpus1.iq.issued_per_cycle::total    234317237                       # Number of insts issued each cycle
system.switch_cpus1.iq.fu_full::No_OpClass            0      0.00%      0.00% # attempts to use FU when none available
system.switch_cpus1.iq.fu_full::IntAlu          51736     13.70%     13.70% # attempts to use FU when none available
system.switch_cpus1.iq.fu_full::IntMult             0      0.00%     13.70% # attempts to use FU when none available
system.switch_cpus1.iq.fu_full::IntDiv              0      0.00%     13.70% # attempts to use FU when none available
system.switch_cpus1.iq.fu_full::FloatAdd            0      0.00%     13.70% # attempts to use FU when none available
system.switch_cpus1.iq.fu_full::FloatCmp            0      0.00%     13.70% # attempts to use FU when none available
system.switch_cpus1.iq.fu_full::FloatCvt            0      0.00%     13.70% # attempts to use FU when none available
system.switch_cpus1.iq.fu_full::FloatMult            0      0.00%     13.70% # attempts to use FU when none available
system.switch_cpus1.iq.fu_full::FloatDiv            0      0.00%     13.70% # attempts to use FU when none available
system.switch_cpus1.iq.fu_full::FloatSqrt            0      0.00%     13.70% # attempts to use FU when none available
system.switch_cpus1.iq.fu_full::SimdAdd             0      0.00%     13.70% # attempts to use FU when none available
system.switch_cpus1.iq.fu_full::SimdAddAcc            0      0.00%     13.70% # attempts to use FU when none available
system.switch_cpus1.iq.fu_full::SimdAlu             0      0.00%     13.70% # attempts to use FU when none available
system.switch_cpus1.iq.fu_full::SimdCmp             0      0.00%     13.70% # attempts to use FU when none available
system.switch_cpus1.iq.fu_full::SimdCvt             0      0.00%     13.70% # attempts to use FU when none available
system.switch_cpus1.iq.fu_full::SimdMisc            0      0.00%     13.70% # attempts to use FU when none available
system.switch_cpus1.iq.fu_full::SimdMult            0      0.00%     13.70% # attempts to use FU when none available
system.switch_cpus1.iq.fu_full::SimdMultAcc            0      0.00%     13.70% # attempts to use FU when none available
system.switch_cpus1.iq.fu_full::SimdShift            0      0.00%     13.70% # attempts to use FU when none available
system.switch_cpus1.iq.fu_full::SimdShiftAcc            0      0.00%     13.70% # attempts to use FU when none available
system.switch_cpus1.iq.fu_full::SimdSqrt            0      0.00%     13.70% # attempts to use FU when none available
system.switch_cpus1.iq.fu_full::SimdFloatAdd            0      0.00%     13.70% # attempts to use FU when none available
system.switch_cpus1.iq.fu_full::SimdFloatAlu            0      0.00%     13.70% # attempts to use FU when none available
system.switch_cpus1.iq.fu_full::SimdFloatCmp            0      0.00%     13.70% # attempts to use FU when none available
system.switch_cpus1.iq.fu_full::SimdFloatCvt            0      0.00%     13.70% # attempts to use FU when none available
system.switch_cpus1.iq.fu_full::SimdFloatDiv            0      0.00%     13.70% # attempts to use FU when none available
system.switch_cpus1.iq.fu_full::SimdFloatMisc            0      0.00%     13.70% # attempts to use FU when none available
system.switch_cpus1.iq.fu_full::SimdFloatMult            0      0.00%     13.70% # attempts to use FU when none available
system.switch_cpus1.iq.fu_full::SimdFloatMultAcc            0      0.00%     13.70% # attempts to use FU when none available
system.switch_cpus1.iq.fu_full::SimdFloatSqrt            0      0.00%     13.70% # attempts to use FU when none available
system.switch_cpus1.iq.fu_full::MemRead        168442     44.60%     58.30% # attempts to use FU when none available
system.switch_cpus1.iq.fu_full::MemWrite       157501     41.70%    100.00% # attempts to use FU when none available
system.switch_cpus1.iq.fu_full::IprAccess            0      0.00%    100.00% # attempts to use FU when none available
system.switch_cpus1.iq.fu_full::InstPrefetch            0      0.00%    100.00% # attempts to use FU when none available
system.switch_cpus1.iq.FU_type_0::No_OpClass            0      0.00%      0.00% # Type of FU issued
system.switch_cpus1.iq.FU_type_0::IntAlu    119091622     84.38%     84.38% # Type of FU issued
system.switch_cpus1.iq.FU_type_0::IntMult      1930364      1.37%     85.75% # Type of FU issued
system.switch_cpus1.iq.FU_type_0::IntDiv            0      0.00%     85.75% # Type of FU issued
system.switch_cpus1.iq.FU_type_0::FloatAdd            0      0.00%     85.75% # Type of FU issued
system.switch_cpus1.iq.FU_type_0::FloatCmp            0      0.00%     85.75% # Type of FU issued
system.switch_cpus1.iq.FU_type_0::FloatCvt            0      0.00%     85.75% # Type of FU issued
system.switch_cpus1.iq.FU_type_0::FloatMult            0      0.00%     85.75% # Type of FU issued
system.switch_cpus1.iq.FU_type_0::FloatDiv            0      0.00%     85.75% # Type of FU issued
system.switch_cpus1.iq.FU_type_0::FloatSqrt            0      0.00%     85.75% # Type of FU issued
system.switch_cpus1.iq.FU_type_0::SimdAdd            0      0.00%     85.75% # Type of FU issued
system.switch_cpus1.iq.FU_type_0::SimdAddAcc            0      0.00%     85.75% # Type of FU issued
system.switch_cpus1.iq.FU_type_0::SimdAlu            0      0.00%     85.75% # Type of FU issued
system.switch_cpus1.iq.FU_type_0::SimdCmp            0      0.00%     85.75% # Type of FU issued
system.switch_cpus1.iq.FU_type_0::SimdCvt            0      0.00%     85.75% # Type of FU issued
system.switch_cpus1.iq.FU_type_0::SimdMisc            0      0.00%     85.75% # Type of FU issued
system.switch_cpus1.iq.FU_type_0::SimdMult            0      0.00%     85.75% # Type of FU issued
system.switch_cpus1.iq.FU_type_0::SimdMultAcc            0      0.00%     85.75% # Type of FU issued
system.switch_cpus1.iq.FU_type_0::SimdShift            0      0.00%     85.75% # Type of FU issued
system.switch_cpus1.iq.FU_type_0::SimdShiftAcc            0      0.00%     85.75% # Type of FU issued
system.switch_cpus1.iq.FU_type_0::SimdSqrt            0      0.00%     85.75% # Type of FU issued
system.switch_cpus1.iq.FU_type_0::SimdFloatAdd            0      0.00%     85.75% # Type of FU issued
system.switch_cpus1.iq.FU_type_0::SimdFloatAlu            0      0.00%     85.75% # Type of FU issued
system.switch_cpus1.iq.FU_type_0::SimdFloatCmp            0      0.00%     85.75% # Type of FU issued
system.switch_cpus1.iq.FU_type_0::SimdFloatCvt            0      0.00%     85.75% # Type of FU issued
system.switch_cpus1.iq.FU_type_0::SimdFloatDiv            0      0.00%     85.75% # Type of FU issued
system.switch_cpus1.iq.FU_type_0::SimdFloatMisc        17732      0.01%     85.76% # Type of FU issued
system.switch_cpus1.iq.FU_type_0::SimdFloatMult            0      0.00%     85.76% # Type of FU issued
system.switch_cpus1.iq.FU_type_0::SimdFloatMultAcc            0      0.00%     85.76% # Type of FU issued
system.switch_cpus1.iq.FU_type_0::SimdFloatSqrt            0      0.00%     85.76% # Type of FU issued
system.switch_cpus1.iq.FU_type_0::MemRead     12649539      8.96%     94.72% # Type of FU issued
system.switch_cpus1.iq.FU_type_0::MemWrite      7445294      5.28%    100.00% # Type of FU issued
system.switch_cpus1.iq.FU_type_0::IprAccess            0      0.00%    100.00% # Type of FU issued
system.switch_cpus1.iq.FU_type_0::InstPrefetch            0      0.00%    100.00% # Type of FU issued
system.switch_cpus1.iq.FU_type_0::total     141134551                       # Type of FU issued
system.switch_cpus1.iq.rate                  0.569494                       # Inst issue rate
system.switch_cpus1.iq.fu_busy_cnt             377679                       # FU busy when requested
system.switch_cpus1.iq.fu_busy_rate          0.002676                       # FU busy rate (busy events/executed inst)
system.switch_cpus1.iq.int_inst_queue_reads    517030018                       # Number of integer instruction queue reads
system.switch_cpus1.iq.int_inst_queue_writes    165606967                       # Number of integer instruction queue writes
system.switch_cpus1.iq.int_inst_queue_wakeup_accesses    138725903                       # Number of integer instruction queue wakeup accesses
system.switch_cpus1.iq.fp_inst_queue_reads            0                       # Number of floating instruction queue reads
system.switch_cpus1.iq.fp_inst_queue_writes            0                       # Number of floating instruction queue writes
system.switch_cpus1.iq.fp_inst_queue_wakeup_accesses            0                       # Number of floating instruction queue wakeup accesses
system.switch_cpus1.iq.int_alu_accesses     141512230                       # Number of integer alu accesses
system.switch_cpus1.iq.fp_alu_accesses              0                       # Number of floating point alu accesses
system.switch_cpus1.iew.lsq.thread0.forwLoads       286914                       # Number of loads that had data forwarded from stores
system.switch_cpus1.iew.lsq.thread0.invAddrLoads            0                       # Number of loads ignored due to an invalid address
system.switch_cpus1.iew.lsq.thread0.squashedLoads      2275940                       # Number of loads squashed
system.switch_cpus1.iew.lsq.thread0.ignoredResponses            3                       # Number of memory responses ignored because the instruction is squashed
system.switch_cpus1.iew.lsq.thread0.memOrderViolation          240                       # Number of memory ordering violations
system.switch_cpus1.iew.lsq.thread0.squashedStores        88972                       # Number of stores squashed
system.switch_cpus1.iew.lsq.thread0.invAddrSwpfs            0                       # Number of software prefetches ignored due to an invalid address
system.switch_cpus1.iew.lsq.thread0.blockedLoads            0                       # Number of blocked loads due to partial load-store forwarding
system.switch_cpus1.iew.lsq.thread0.rescheduledLoads            0                       # Number of loads that were rescheduled
system.switch_cpus1.iew.lsq.thread0.cacheBlocked            0                       # Number of times an access to memory failed due to the cache being blocked
system.switch_cpus1.iew.iewIdleCycles               0                       # Number of cycles IEW is idle
system.switch_cpus1.iew.iewSquashCycles       3662404                       # Number of cycles IEW is squashing
system.switch_cpus1.iew.iewBlockCycles         478164                       # Number of cycles IEW is blocking
system.switch_cpus1.iew.iewUnblockCycles        55941                       # Number of cycles IEW is unblocking
system.switch_cpus1.iew.iewDispatchedInsts    148059522                       # Number of instructions dispatched to IQ
system.switch_cpus1.iew.iewDispSquashedInsts        15857                       # Number of squashed instructions skipped by dispatch
system.switch_cpus1.iew.iewDispLoadInsts     13874237                       # Number of dispatched load instructions
system.switch_cpus1.iew.iewDispStoreInsts      7464302                       # Number of dispatched store instructions
system.switch_cpus1.iew.iewDispNonSpecInsts        17779                       # Number of dispatched non-speculative instructions
system.switch_cpus1.iew.iewIQFullEvents         46203                       # Number of times the IQ has become full, causing a stall
system.switch_cpus1.iew.iewLSQFullEvents            0                       # Number of times the LSQ has become full, causing a stall
system.switch_cpus1.iew.memOrderViolationEvents          240                       # Number of memory order violations
system.switch_cpus1.iew.predictedTakenIncorrect      1194076                       # Number of branches that were predicted taken incorrectly
system.switch_cpus1.iew.predictedNotTakenIncorrect      1086107                       # Number of branches that were predicted not taken incorrectly
system.switch_cpus1.iew.branchMispredicts      2280183                       # Number of branch mispredicts detected at execute
system.switch_cpus1.iew.iewExecutedInsts    139524928                       # Number of executed instructions
system.switch_cpus1.iew.iewExecLoadInsts     12553192                       # Number of load instructions executed
system.switch_cpus1.iew.iewExecSquashedInsts      1609623                       # Number of squashed instructions skipped in execute
system.switch_cpus1.iew.exec_swp                    0                       # number of swp insts executed
system.switch_cpus1.iew.exec_nop                    0                       # number of nop insts executed
system.switch_cpus1.iew.exec_refs            19998481                       # number of memory reference insts executed
system.switch_cpus1.iew.exec_branches        19772239                       # Number of branches executed
system.switch_cpus1.iew.exec_stores           7445289                       # Number of stores executed
system.switch_cpus1.iew.exec_rate            0.562999                       # Inst execution rate
system.switch_cpus1.iew.wb_sent             138725967                       # cumulative count of insts sent to commit
system.switch_cpus1.iew.wb_count            138725903                       # cumulative count of insts written-back
system.switch_cpus1.iew.wb_producers         81189290                       # num instructions producing a value
system.switch_cpus1.iew.wb_consumers        221129091                       # num instructions consuming a value
system.switch_cpus1.iew.wb_penalized                0                       # number of instrctions required to write to 'other' IQ
system.switch_cpus1.iew.wb_rate              0.559774                       # insts written-back per cycle
system.switch_cpus1.iew.wb_fanout            0.367158                       # average fanout of values written-back
system.switch_cpus1.iew.wb_penalized_rate            0                       # fraction of instructions written-back that wrote to 'other' IQ
system.switch_cpus1.commit.commitCommittedInsts    103782328                       # The number of committed instructions
system.switch_cpus1.commit.commitCommittedOps    127926034                       # The number of committed instructions
system.switch_cpus1.commit.commitSquashedInsts     20133690                       # The number of squashed insts skipped by commit
system.switch_cpus1.commit.commitNonSpecStalls        35464                       # The number of times commit has been forced to stall to communicate backwards
system.switch_cpus1.commit.branchMispredicts      2092251                       # The number of times a branch was mispredicted
system.switch_cpus1.commit.committed_per_cycle::samples    230654833                       # Number of insts commited each cycle
system.switch_cpus1.commit.committed_per_cycle::mean     0.554621                       # Number of insts commited each cycle
system.switch_cpus1.commit.committed_per_cycle::stdev     1.406331                       # Number of insts commited each cycle
system.switch_cpus1.commit.committed_per_cycle::underflows            0      0.00%      0.00% # Number of insts commited each cycle
system.switch_cpus1.commit.committed_per_cycle::0    178428496     77.36%     77.36% # Number of insts commited each cycle
system.switch_cpus1.commit.committed_per_cycle::1     25477081     11.05%     88.40% # Number of insts commited each cycle
system.switch_cpus1.commit.committed_per_cycle::2      9772419      4.24%     92.64% # Number of insts commited each cycle
system.switch_cpus1.commit.committed_per_cycle::3      5143963      2.23%     94.87% # Number of insts commited each cycle
system.switch_cpus1.commit.committed_per_cycle::4      4369433      1.89%     96.76% # Number of insts commited each cycle
system.switch_cpus1.commit.committed_per_cycle::5      2072234      0.90%     97.66% # Number of insts commited each cycle
system.switch_cpus1.commit.committed_per_cycle::6       980353      0.43%     98.09% # Number of insts commited each cycle
system.switch_cpus1.commit.committed_per_cycle::7      1535626      0.67%     98.75% # Number of insts commited each cycle
system.switch_cpus1.commit.committed_per_cycle::8      2875228      1.25%    100.00% # Number of insts commited each cycle
system.switch_cpus1.commit.committed_per_cycle::overflows            0      0.00%    100.00% # Number of insts commited each cycle
system.switch_cpus1.commit.committed_per_cycle::min_value            0                       # Number of insts commited each cycle
system.switch_cpus1.commit.committed_per_cycle::max_value            8                       # Number of insts commited each cycle
system.switch_cpus1.commit.committed_per_cycle::total    230654833                       # Number of insts commited each cycle
system.switch_cpus1.commit.committedInsts    103782328                       # Number of instructions committed
system.switch_cpus1.commit.committedOps     127926034                       # Number of ops (including micro ops) committed
system.switch_cpus1.commit.swp_count                0                       # Number of s/w prefetches committed
system.switch_cpus1.commit.refs              18973622                       # Number of memory references committed
system.switch_cpus1.commit.loads             11598296                       # Number of loads committed
[...]
system.cpu2.icache.ReadReq_miss_latency::total      2534327                       # number of ReadReq miss cycles
system.cpu2.icache.demand_miss_latency::switch_cpus2.inst      2534327                       # number of demand (read+write) miss cycles
system.cpu2.icache.demand_miss_latency::total      2534327                       # number of demand (read+write) miss cycles
system.cpu2.icache.overall_miss_latency::switch_cpus2.inst      2534327                       # number of overall miss cycles
system.cpu2.icache.overall_miss_latency::total      2534327                       # number of overall miss cycles
system.cpu2.icache.ReadReq_accesses::switch_cpus2.inst     12005763                       # number of ReadReq accesses(hits+misses)
system.cpu2.icache.ReadReq_accesses::total     12005763                       # number of ReadReq accesses(hits+misses)
system.cpu2.icache.demand_accesses::switch_cpus2.inst     12005763                       # number of demand (read+write) accesses
system.cpu2.icache.demand_accesses::total     12005763                       # number of demand (read+write) accesses
system.cpu2.icache.overall_accesses::switch_cpus2.inst     12005763                       # number of overall (read+write) accesses
system.cpu2.icache.overall_accesses::total     12005763                       # number of overall (read+write) accesses
system.cpu2.icache.ReadReq_miss_rate::switch_cpus2.inst     0.000001                       # miss rate for ReadReq accesses
system.cpu2.icache.ReadReq_miss_rate::total     0.000001                       # miss rate for ReadReq accesses
system.cpu2.icache.demand_miss_rate::switch_cpus2.inst     0.000001                       # miss rate for demand accesses
system.cpu2.icache.demand_miss_rate::total     0.000001                       # miss rate for demand accesses
system.cpu2.icache.overall_miss_rate::switch_cpus2.inst     0.000001                       # miss rate for overall accesses
system.cpu2.icache.overall_miss_rate::total     0.000001                       # miss rate for overall accesses
system.cpu2.icache.ReadReq_avg_miss_latency::switch_cpus2.inst 168955.133333                       # average ReadReq miss latency
system.cpu2.icache.ReadReq_avg_miss_latency::total 168955.133333                       # average ReadReq miss latency
system.cpu2.icache.demand_avg_miss_latency::switch_cpus2.inst 168955.133333                       # average overall miss latency
system.cpu2.icache.demand_avg_miss_latency::total 168955.133333                       # average overall miss latency
system.cpu2.icache.overall_avg_miss_latency::switch_cpus2.inst 168955.133333                       # average overall miss latency
system.cpu2.icache.overall_avg_miss_latency::total 168955.133333                       # average overall miss latency
system.cpu2.icache.blocked_cycles::no_mshrs            0                       # number of cycles access was blocked
system.cpu2.icache.blocked_cycles::no_targets            0                       # number of cycles access was blocked
system.cpu2.icache.blocked::no_mshrs                0                       # number of cycles access was blocked
system.cpu2.icache.blocked::no_targets              0                       # number of cycles access was blocked
system.cpu2.icache.avg_blocked_cycles::no_mshrs          nan                       # average number of cycles each access was blocked
system.cpu2.icache.avg_blocked_cycles::no_targets          nan                       # average number of cycles each access was blocked
system.cpu2.icache.fast_writes                      0                       # number of fast writes performed
system.cpu2.icache.cache_copies                     0                       # number of cache copies performed
system.cpu2.icache.ReadReq_mshr_hits::switch_cpus2.inst            1                       # number of ReadReq MSHR hits
system.cpu2.icache.ReadReq_mshr_hits::total            1                       # number of ReadReq MSHR hits
system.cpu2.icache.demand_mshr_hits::switch_cpus2.inst            1                       # number of demand (read+write) MSHR hits
system.cpu2.icache.demand_mshr_hits::total            1                       # number of demand (read+write) MSHR hits
system.cpu2.icache.overall_mshr_hits::switch_cpus2.inst            1                       # number of overall MSHR hits
system.cpu2.icache.overall_mshr_hits::total            1                       # number of overall MSHR hits
system.cpu2.icache.ReadReq_mshr_misses::switch_cpus2.inst           14                       # number of ReadReq MSHR misses
system.cpu2.icache.ReadReq_mshr_misses::total           14                       # number of ReadReq MSHR misses
system.cpu2.icache.demand_mshr_misses::switch_cpus2.inst           14                       # number of demand (read+write) MSHR misses
system.cpu2.icache.demand_mshr_misses::total           14                       # number of demand (read+write) MSHR misses
system.cpu2.icache.overall_mshr_misses::switch_cpus2.inst           14                       # number of overall MSHR misses
system.cpu2.icache.overall_mshr_misses::total           14                       # number of overall MSHR misses
system.cpu2.icache.ReadReq_mshr_miss_latency::switch_cpus2.inst      2219071                       # number of ReadReq MSHR miss cycles
system.cpu2.icache.ReadReq_mshr_miss_latency::total      2219071                       # number of ReadReq MSHR miss cycles
system.cpu2.icache.demand_mshr_miss_latency::switch_cpus2.inst      2219071                       # number of demand (read+write) MSHR miss cycles
system.cpu2.icache.demand_mshr_miss_latency::total      2219071                       # number of demand (read+write) MSHR miss cycles
system.cpu2.icache.overall_mshr_miss_latency::switch_cpus2.inst      2219071                       # number of overall MSHR miss cycles
system.cpu2.icache.overall_mshr_miss_latency::total      2219071                       # number of overall MSHR miss cycles
system.cpu2.icache.ReadReq_mshr_miss_rate::switch_cpus2.inst     0.000001                       # mshr miss rate for ReadReq accesses
system.cpu2.icache.ReadReq_mshr_miss_rate::total     0.000001                       # mshr miss rate for ReadReq accesses
system.cpu2.icache.demand_mshr_miss_rate::switch_cpus2.inst     0.000001                       # mshr miss rate for demand accesses
system.cpu2.icache.demand_mshr_miss_rate::total     0.000001                       # mshr miss rate for demand accesses
system.cpu2.icache.overall_mshr_miss_rate::switch_cpus2.inst     0.000001                       # mshr miss rate for overall accesses
system.cpu2.icache.overall_mshr_miss_rate::total     0.000001                       # mshr miss rate for overall accesses
system.cpu2.icache.ReadReq_avg_mshr_miss_latency::switch_cpus2.inst 158505.071429                       # average ReadReq mshr miss latency
system.cpu2.icache.ReadReq_avg_mshr_miss_latency::total 158505.071429                       # average ReadReq mshr miss latency
system.cpu2.icache.demand_avg_mshr_miss_latency::switch_cpus2.inst 158505.071429                       # average overall mshr miss latency
system.cpu2.icache.demand_avg_mshr_miss_latency::total 158505.071429                       # average overall mshr miss latency
system.cpu2.icache.overall_avg_mshr_miss_latency::switch_cpus2.inst 158505.071429                       # average overall mshr miss latency
system.cpu2.icache.overall_avg_mshr_miss_latency::total 158505.071429                       # average overall mshr miss latency
system.cpu2.icache.no_allocate_misses               0                       # Number of misses that were no-allocate
system.cpu2.dcache.replacements                 40691                       # number of replacements
system.cpu2.dcache.tagsinuse                      256                       # Cycle average of tags in use
system.cpu2.dcache.total_refs               169253504                       # Total number of references to valid blocks.
system.cpu2.dcache.sampled_refs                 40947                       # Sample count of references to valid blocks.
system.cpu2.dcache.avg_refs               4133.477520                       # Average number of references to valid blocks.
system.cpu2.dcache.warmup_cycle                     0                       # Cycle when the warmup percentage was hit.
system.cpu2.dcache.occ_blocks::switch_cpus2.data   233.007865                       # Average occupied blocks per requestor
system.cpu2.dcache.occ_blocks::cpu2.data    22.992135                       # Average occupied blocks per requestor
system.cpu2.dcache.occ_percent::switch_cpus2.data     0.910187                       # Average percentage of cache occupancy
system.cpu2.dcache.occ_percent::cpu2.data     0.089813                       # Average percentage of cache occupancy
system.cpu2.dcache.occ_percent::total               1                       # Average percentage of cache occupancy
system.cpu2.dcache.ReadReq_hits::switch_cpus2.data      9668250                       # number of ReadReq hits
system.cpu2.dcache.ReadReq_hits::total        9668250                       # number of ReadReq hits
system.cpu2.dcache.WriteReq_hits::switch_cpus2.data      7362000                       # number of WriteReq hits
system.cpu2.dcache.WriteReq_hits::total       7362000                       # number of WriteReq hits
system.cpu2.dcache.LoadLockedReq_hits::switch_cpus2.data        17632                       # number of LoadLockedReq hits
system.cpu2.dcache.LoadLockedReq_hits::total        17632                       # number of LoadLockedReq hits
system.cpu2.dcache.StoreCondReq_hits::switch_cpus2.data        17632                       # number of StoreCondReq hits
system.cpu2.dcache.StoreCondReq_hits::total        17632                       # number of StoreCondReq hits
system.cpu2.dcache.demand_hits::switch_cpus2.data     17030250                       # number of demand (read+write) hits
system.cpu2.dcache.demand_hits::total        17030250                       # number of demand (read+write) hits
system.cpu2.dcache.overall_hits::switch_cpus2.data     17030250                       # number of overall hits
system.cpu2.dcache.overall_hits::total       17030250                       # number of overall hits
system.cpu2.dcache.ReadReq_misses::switch_cpus2.data       122371                       # number of ReadReq misses
system.cpu2.dcache.ReadReq_misses::total       122371                       # number of ReadReq misses
system.cpu2.dcache.demand_misses::switch_cpus2.data       122371                       # number of demand (read+write) misses
system.cpu2.dcache.demand_misses::total        122371                       # number of demand (read+write) misses
system.cpu2.dcache.overall_misses::switch_cpus2.data       122371                       # number of overall misses
system.cpu2.dcache.overall_misses::total       122371                       # number of overall misses
system.cpu2.dcache.ReadReq_miss_latency::switch_cpus2.data  12356799665                       # number of ReadReq miss cycles
system.cpu2.dcache.ReadReq_miss_latency::total  12356799665                       # number of ReadReq miss cycles
system.cpu2.dcache.demand_miss_latency::switch_cpus2.data  12356799665                       # number of demand (read+write) miss cycles
system.cpu2.dcache.demand_miss_latency::total  12356799665                       # number of demand (read+write) miss cycles
system.cpu2.dcache.overall_miss_latency::switch_cpus2.data  12356799665                       # number of overall miss cycles
system.cpu2.dcache.overall_miss_latency::total  12356799665                       # number of overall miss cycles
system.cpu2.dcache.ReadReq_accesses::switch_cpus2.data      9790621                       # number of ReadReq accesses(hits+misses)
system.cpu2.dcache.ReadReq_accesses::total      9790621                       # number of ReadReq accesses(hits+misses)
system.cpu2.dcache.WriteReq_accesses::switch_cpus2.data      7362000                       # number of WriteReq accesses(hits+misses)
system.cpu2.dcache.WriteReq_accesses::total      7362000                       # number of WriteReq accesses(hits+misses)
system.cpu2.dcache.LoadLockedReq_accesses::switch_cpus2.data        17632                       # number of LoadLockedReq accesses(hits+misses)
system.cpu2.dcache.LoadLockedReq_accesses::total        17632                       # number of LoadLockedReq accesses(hits+misses)
system.cpu2.dcache.StoreCondReq_accesses::switch_cpus2.data        17632                       # number of StoreCondReq accesses(hits+misses)
system.cpu2.dcache.StoreCondReq_accesses::total        17632                       # number of StoreCondReq accesses(hits+misses)
system.cpu2.dcache.demand_accesses::switch_cpus2.data     17152621                       # number of demand (read+write) accesses
system.cpu2.dcache.demand_accesses::total     17152621                       # number of demand (read+write) accesses
system.cpu2.dcache.overall_accesses::switch_cpus2.data     17152621                       # number of overall (read+write) accesses
system.cpu2.dcache.overall_accesses::total     17152621                       # number of overall (read+write) accesses
system.cpu2.dcache.ReadReq_miss_rate::switch_cpus2.data     0.012499                       # miss rate for ReadReq accesses
system.cpu2.dcache.ReadReq_miss_rate::total     0.012499                       # miss rate for ReadReq accesses
system.cpu2.dcache.demand_miss_rate::switch_cpus2.data     0.007134                       # miss rate for demand accesses
system.cpu2.dcache.demand_miss_rate::total     0.007134                       # miss rate for demand accesses
system.cpu2.dcache.overall_miss_rate::switch_cpus2.data     0.007134                       # miss rate for overall accesses
system.cpu2.dcache.overall_miss_rate::total     0.007134                       # miss rate for overall accesses
system.cpu2.dcache.ReadReq_avg_miss_latency::switch_cpus2.data 100978.170196                       # average ReadReq miss latency
system.cpu2.dcache.ReadReq_avg_miss_latency::total 100978.170196                       # average ReadReq miss latency
system.cpu2.dcache.demand_avg_miss_latency::switch_cpus2.data 100978.170196                       # average overall miss latency
system.cpu2.dcache.demand_avg_miss_latency::total 100978.170196                       # average overall miss latency
system.cpu2.dcache.overall_avg_miss_latency::switch_cpus2.data 100978.170196                       # average overall miss latency
system.cpu2.dcache.overall_avg_miss_latency::total 100978.170196                       # average overall miss latency
system.cpu2.dcache.blocked_cycles::no_mshrs            0                       # number of cycles access was blocked
system.cpu2.dcache.blocked_cycles::no_targets            0                       # number of cycles access was blocked
system.cpu2.dcache.blocked::no_mshrs                0                       # number of cycles access was blocked
system.cpu2.dcache.blocked::no_targets              0                       # number of cycles access was blocked
system.cpu2.dcache.avg_blocked_cycles::no_mshrs          nan                       # average number of cycles each access was blocked
system.cpu2.dcache.avg_blocked_cycles::no_targets          nan                       # average number of cycles each access was blocked
system.cpu2.dcache.fast_writes                      0                       # number of fast writes performed
system.cpu2.dcache.cache_copies                     0                       # number of cache copies performed
system.cpu2.dcache.writebacks::writebacks         9695                       # number of writebacks
system.cpu2.dcache.writebacks::total             9695                       # number of writebacks
system.cpu2.dcache.ReadReq_mshr_hits::switch_cpus2.data        81680                       # number of ReadReq MSHR hits
system.cpu2.dcache.ReadReq_mshr_hits::total        81680                       # number of ReadReq MSHR hits
system.cpu2.dcache.demand_mshr_hits::switch_cpus2.data        81680                       # number of demand (read+write) MSHR hits
system.cpu2.dcache.demand_mshr_hits::total        81680                       # number of demand (read+write) MSHR hits
system.cpu2.dcache.overall_mshr_hits::switch_cpus2.data        81680                       # number of overall MSHR hits
system.cpu2.dcache.overall_mshr_hits::total        81680                       # number of overall MSHR hits
system.cpu2.dcache.ReadReq_mshr_misses::switch_cpus2.data        40691                       # number of ReadReq MSHR misses
system.cpu2.dcache.ReadReq_mshr_misses::total        40691                       # number of ReadReq MSHR misses
system.cpu2.dcache.demand_mshr_misses::switch_cpus2.data        40691                       # number of demand (read+write) MSHR misses
system.cpu2.dcache.demand_mshr_misses::total        40691                       # number of demand (read+write) MSHR misses
system.cpu2.dcache.overall_mshr_misses::switch_cpus2.data        40691                       # number of overall MSHR misses
system.cpu2.dcache.overall_mshr_misses::total        40691                       # number of overall MSHR misses
system.cpu2.dcache.ReadReq_mshr_miss_latency::switch_cpus2.data   3243299782                       # number of ReadReq MSHR miss cycles
system.cpu2.dcache.ReadReq_mshr_miss_latency::total   3243299782                       # number of ReadReq MSHR miss cycles
system.cpu2.dcache.demand_mshr_miss_latency::switch_cpus2.data   3243299782                       # number of demand (read+write) MSHR miss cycles
system.cpu2.dcache.demand_mshr_miss_latency::total   3243299782                       # number of demand (read+write) MSHR miss cycles
system.cpu2.dcache.overall_mshr_miss_latency::switch_cpus2.data   3243299782                       # number of overall MSHR miss cycles
system.cpu2.dcache.overall_mshr_miss_latency::total   3243299782                       # number of overall MSHR miss cycles
system.cpu2.dcache.ReadReq_mshr_miss_rate::switch_cpus2.data     0.004156                       # mshr miss rate for ReadReq accesses
system.cpu2.dcache.ReadReq_mshr_miss_rate::total     0.004156                       # mshr miss rate for ReadReq accesses
system.cpu2.dcache.demand_mshr_miss_rate::switch_cpus2.data     0.002372                       # mshr miss rate for demand accesses
system.cpu2.dcache.demand_mshr_miss_rate::total     0.002372                       # mshr miss rate for demand accesses
system.cpu2.dcache.overall_mshr_miss_rate::switch_cpus2.data     0.002372                       # mshr miss rate for overall accesses
system.cpu2.dcache.overall_mshr_miss_rate::total     0.002372                       # mshr miss rate for overall accesses
system.cpu2.dcache.ReadReq_avg_mshr_miss_latency::switch_cpus2.data 79705.580644                       # average ReadReq mshr miss latency
system.cpu2.dcache.ReadReq_avg_mshr_miss_latency::total 79705.580644                       # average ReadReq mshr miss latency
system.cpu2.dcache.demand_avg_mshr_miss_latency::switch_cpus2.data 79705.580644                       # average overall mshr miss latency
system.cpu2.dcache.demand_avg_mshr_miss_latency::total 79705.580644                       # average overall mshr miss latency
system.cpu2.dcache.overall_avg_mshr_miss_latency::switch_cpus2.data 79705.580644                       # average overall mshr miss latency
system.cpu2.dcache.overall_avg_mshr_miss_latency::total 79705.580644                       # average overall mshr miss latency
system.cpu2.dcache.no_allocate_misses               0                       # Number of misses that were no-allocate

---------- End Simulation Statistics   ----------
